 Abaqus/Standard Learning Edition 2024                  DATE 12-May-2025 TIME 21:29:20
 SUMMARY OF JOB INFORMATION:
 STEP  INC ATT SEVERE EQUIL TOTAL  TOTAL      STEP       INC OF       DOF    IF
               DISCON ITERS ITERS  TIME/    TIME/LPF    TIME/LPF    MONITOR RIKS
               ITERS               FREQ
   1     1   1     0     1     1  0.100      0.100      0.1000    
   1     2   1     0     3     3  0.200      0.200      0.1000    
   1     3   1     0     2     2  0.300      0.300      0.1000    
   1     4   1     0     2     2  0.450      0.450      0.1500    
   1     5   1     0     2     2  0.675      0.675      0.2250    
   1     6   1     0     1     1  1.01       1.01       0.3375    
   1     7   1     0     1     1  1.69       1.69       0.6750    
   1     8   1     0     2     2  2.69       2.69       1.000     
   1     9   1     0     4     4  3.69       3.69       1.000     
   1    10   1     0     2     2  4.69       4.69       1.000     
   1    11   1     0     2     2  5.69       5.69       1.000     
   1    12   1     0     1     1  6.69       6.69       1.000     
   1    13   1     0     4     4  7.69       7.69       1.000     
   1    14   1     0     2     2  8.69       8.69       1.000     
   1    15   1     0     2     2  9.69       9.69       1.000     
   1    16   1     0     4     4  10.7       10.7       1.000     
   1    17   1     0     2     2  11.7       11.7       1.000     
   1    18   1     0     2     2  12.7       12.7       1.000     
   1    19   1     0     1     1  13.7       13.7       1.000     
   1    20   1     0     3     3  14.7       14.7       1.000     
   1    21   1     0     2     2  15.7       15.7       1.000     
   1    22   1     0     5     5  16.7       16.7       1.000     
   1    23   1     0     5     5  17.7       17.7       1.000     
   1    24   1     0     3     3  18.7       18.7       1.000     
   1    25   1U    0     4     4  18.7       18.7       1.000     
   1    25   2U    0     3     3  18.7       18.7       0.2500    
   1    25   3     0     3     3  18.8       18.8       0.06250   
   1    26   1U    0     4     4  18.8       18.8       0.09375   
   1    26   2U    0     5     5  18.8       18.8       0.02344   
   1    26   3     0     2     2  18.8       18.8       0.005859  
