 Abaqus/Standard Learning Edition 2024                  DATE 23-May-2025 TIME 12:31:54
 SUMMARY OF JOB INFORMATION:
 STEP  INC ATT SEVERE EQUIL TOTAL  TOTAL      STEP       INC OF       DOF    IF
               DISCON ITERS ITERS  TIME/    TIME/LPF    TIME/LPF    MONITOR RIKS
               ITERS               FREQ
   1     1   1     0     1     1  0.100      0.100      0.1000    
   1     2   1     0     1     1  0.200      0.200      0.1000    
   1     3   1     0     1     1  0.300      0.300      0.1000    
   1     4   1     0     1     1  0.500      0.500      0.2000    
   1     5   1     0     3     3  0.900      0.900      0.4000    
   1     6   1     0     3     3  1.50       1.50       0.6000    
   1     7   1     0     2     2  2.40       2.40       0.9000    
   1     8   1U    0     5     5  2.40       2.40       1.000     
   1     8   2U    0     3     3  2.40       2.40       0.2500    
   1     8   3     0     5     5  2.46       2.46       0.06250   
   1     9   1     0     2     2  2.53       2.53       0.06250   
   1    10   1     0     1     1  2.59       2.59       0.06250   
   1    11   1     0     1     1  2.71       2.71       0.1250    
   1    12   1     0     2     2  2.96       2.96       0.2500    
   1    13   1     0     2     2  3.34       3.34       0.3750    
   1    14   1     0     2     2  3.90       3.90       0.5625    
   1    15   1     0     3     3  4.74       4.74       0.8438    
   1    16   1U    0     4     4  4.74       4.74       1.000     
   1    16   2U    0     4     4  4.74       4.74       0.2500    
   1    16   3     0     3     3  4.81       4.81       0.06250   
   1    17   1     0     1     1  4.90       4.90       0.09375   
   1    18   1     0     1     1  5.09       5.09       0.1875    
   1    19   1     0     3     3  5.46       5.46       0.3750    
   1    20   1     0     1     1  6.03       6.03       0.5625    
   1    21   1     0     1     1  7.03       7.03       1.000     
   1    22   1     0     3     3  8.03       8.03       1.000     
   1    23   1     0     5     5  9.03       9.03       1.000     
   1    24   1U    0     4     4  9.03       9.03       1.000     
   1    24   2U    0     2     2  9.03       9.03       0.2500    
   1    24   3     0     5     5  9.09       9.09       0.06250   
   1    25   1U    0     5     5  9.09       9.09       0.06250   
   1    25   2U    0     4     4  9.09       9.09       0.01562   
   1    25   3     0     3     3  9.09       9.09       0.003906  
   1    26   1     0     4     4  9.10       9.10       0.003906  
   1    27   1     0     1     1  9.10       9.10       0.005859  
   1    28   1     0     1     1  9.11       9.11       0.01172   
   1    29   1     0     1     1  9.14       9.14       0.02344   
   1    30   1     0     1     1  9.18       9.18       0.04688   
   1    31   1     0     1     1  9.28       9.28       0.09375   
   1    32   1     0     1     1  9.46       9.46       0.1875    
   1    33   1     0     2     2  9.84       9.84       0.3750    
   1    34   1     0     3     3  10.4       10.4       0.5625    
   1    35   1     0     3     3  11.2       11.2       0.8438    
   1    36   1     0     3     3  12.2       12.2       1.000     
   1    37   1U    0     4     4  12.2       12.2       1.000     
   1    37   2U    0     3     3  12.2       12.2       0.2500    
   1    37   3     0     3     3  12.3       12.3       0.06250   
   1    38   1U    0     4     4  12.3       12.3       0.09375   
   1    38   2     0     5     5  12.3       12.3       0.02344   
   1    39   1     0     2     2  12.4       12.4       0.02344   
   1    40   1     0     1     1  12.4       12.4       0.02344   
   1    41   1     0     1     1  12.4       12.4       0.04688   
   1    42   1     0     1     1  12.5       12.5       0.09375   
   1    43   1     0     1     1  12.7       12.7       0.1875    
   1    44   1     0     1     1  13.1       13.1       0.3750    
   1    45   1     0     1     1  13.8       13.8       0.7500    
   1    46   1     0     3     3  14.8       14.8       1.000     
   1    47   1     0     4     4  15.8       15.8       1.000     
   1    48   1     0     5     5  16.8       16.8       1.000     
   1    49   1U    0     4     4  16.8       16.8       1.000     
   1    49   2U    0     3     3  16.8       16.8       0.2500    
   1    49   3     0     2     2  16.9       16.9       0.06250   
   1    50   1     0     1     1  17.0       17.0       0.06250   
   1    51   1     0     1     1  17.1       17.1       0.1250    
   1    52   1     0     1     1  17.3       17.3       0.2500    
   1    53   1     0     1     1  17.8       17.8       0.5000    
   1    54   1     0     3     3  18.8       18.8       1.000     
   1    55   1U    0     4     4  18.8       18.8       1.000     
   1    55   2U    0     2     2  18.8       18.8       0.2500    
   1    55   3     0     4     4  18.9       18.9       0.06250   
   1    56   1     0     1     1  19.0       19.0       0.09375   
   1    57   1     0     1     1  19.2       19.2       0.1875    
   1    58   1     0     2     2  19.6       19.6       0.3750    
   1    59   1     0     1     1  20.1       20.1       0.5625    
   1    60   1     0     1     1  21.1       21.1       1.000     
   1    61   1     0     3     3  22.1       22.1       1.000     
   1    62   1     0     4     4  23.1       23.1       1.000     
   1    63   1U    0     6     6  23.1       23.1       1.000     
   1    63   2U    0     3     3  23.1       23.1       0.2500    
   1    63   3     0     6     6  23.2       23.2       0.06250   
   1    64   1U    0     4     4  23.2       23.2       0.06250   
   1    64   2     0     4     4  23.2       23.2       0.01562   
   1    65   1     0     2     2  23.2       23.2       0.01562   
   1    66   1     0     2     2  23.2       23.2       0.02344   
   1    67   1     0     1     1  23.3       23.3       0.03516   
   1    68   1     0     1     1  23.3       23.3       0.07031   
   1    69   1     0     1     1  23.5       23.5       0.1406    
   1    70   1     0     1     1  23.8       23.8       0.2812    
   1    71   1     0     3     3  24.3       24.3       0.5625    
   1    72   1     0     3     3  25.2       25.2       0.8438    
   1    73   1     0     4     4  26.2       26.2       1.000     
   1    74   1U    0     5     5  26.2       26.2       1.000     
   1    74   2U    0     4     4  26.2       26.2       0.2500    
   1    74   3     0     4     4  26.2       26.2       0.06250   
   1    75   1     0     3     3  26.3       26.3       0.09375   
   1    76   1     0     3     3  26.5       26.5       0.1406    
   1    77   1     0     2     2  26.7       26.7       0.2109    
   1    78   1     0     1     1  27.0       27.0       0.3164    
   1    79   1     0     1     1  27.6       27.6       0.6328    
   1    80   1     0     2     2  28.6       28.6       1.000     
   1    81   1     0     3     3  29.6       29.6       1.000     
   1    82   1     0     3     3  30.6       30.6       1.000     
   1    83   1U    0     4     4  30.6       30.6       1.000     
   1    83   2U    0     3     3  30.6       30.6       0.2500    
   1    83   3     0     4     4  30.7       30.7       0.06250   
   1    84   1U    0     4     4  30.7       30.7       0.09375   
   1    84   2     0     3     3  30.7       30.7       0.02344   
   1    85   1     0     1     1  30.7       30.7       0.03516   
   1    86   1     0     2     2  30.8       30.8       0.07031   
   1    87   1     0     2     2  30.9       30.9       0.1055    
   1    88   1     0     1     1  31.1       31.1       0.1582    
   1    89   1     0     1     1  31.4       31.4       0.3164    
   1    90   1     0     3     3  32.0       32.0       0.6328    
   1    91   1     0     3     3  33.0       33.0       0.9492    
   1    92   1U    0     5     5  33.0       33.0       1.000     
   1    92   2U    0     2     2  33.0       33.0       0.2500    
   1    92   3     0     4     4  33.0       33.0       0.06250   
   1    93   1     0     2     2  33.1       33.1       0.09375   
   1    94   1     0     1     1  33.3       33.3       0.1406    
   1    95   1     0     3     3  33.6       33.6       0.2812    
   1    96   1     0     2     2  34.0       34.0       0.4219    
   1    97   1     0     1     1  34.6       34.6       0.6328    
   1    98   1     0     2     2  35.6       35.6       1.000     
   1    99   1     0     3     3  36.6       36.6       1.000     
   1   100   1     0     3     3  37.6       37.6       1.000     
   1   101   1U    0     4     4  37.6       37.6       1.000     
   1   101   2U    0     3     3  37.6       37.6       0.2500    
   1   101   3     0     4     4  37.7       37.7       0.06250   
   1   102   1U    0     5     5  37.7       37.7       0.09375   
   1   102   2     0     3     3  37.7       37.7       0.02344   
   1   103   1     0     1     1  37.7       37.7       0.03516   
   1   104   1     0     2     2  37.8       37.8       0.07031   
   1   105   1     0     2     2  37.9       37.9       0.1055    
   1   106   1     0     2     2  38.1       38.1       0.1582    
   1   107   1     0     1     1  38.3       38.3       0.2373    
   1   108   1     0     3     3  38.8       38.8       0.4746    
   1   109   1U    0     5     5  38.8       38.8       0.7119    
   1   109   2     0     2     2  39.0       39.0       0.1780    
   1   110   1     0     3     3  39.2       39.2       0.2670    
   1   111   1     0     4     4  39.6       39.6       0.4005    
   1   112   1U    0     3     3  39.6       39.6       0.6007    
   1   112   2U    0     4     4  39.6       39.6       0.1502    
   1   112   3     0     5     5  39.7       39.7       0.03754   
   1   113   1U    0     5     5  39.7       39.7       0.03754   
   1   113   2     0     4     4  39.7       39.7       0.009386  
   1   114   1     0     3     3  39.7       39.7       0.009386  
   1   115   1     0     2     2  39.7       39.7       0.01408   
   1   116   1     0     1     1  39.7       39.7       0.02112   
   1   117   1     0     1     1  39.8       39.8       0.04224   
   1   118   1     0     1     1  39.8       39.8       0.08447   
   1   119   1     0     1     1  40.0       40.0       0.1689    
   1   120   1     0     1     1  40.3       40.3       0.3379    
   1   121   1     0     3     3  41.0       41.0       0.6758    
   1   122   1     0     2     2  42.0       42.0       1.000     
   1   123   1     0     5     5  43.0       43.0       1.000     
   1   124   1U    0     4     4  43.0       43.0       1.000     
   1   124   2     0     4     4  43.3       43.3       0.2500    
   1   125   1     0     3     3  43.5       43.5       0.2500    
   1   126   1     0     3     3  43.9       43.9       0.3750    
   1   127   1U    0     2     2  43.9       43.9       0.5625    
   1   127   2     0     5     5  44.0       44.0       0.1406    
   1   128   1     0     4     4  44.2       44.2       0.1406    
   1   129   1     0     1     1  44.3       44.3       0.1406    
   1   130   1     0     1     1  44.6       44.6       0.2812    
   1   131   1     0     4     4  45.2       45.2       0.5625    
   1   132   1U    0     4     4  45.2       45.2       0.8438    
   1   132   2     0     3     3  45.4       45.4       0.2109    
   1   133   1     0     2     2  45.7       45.7       0.3164    
   1   134   1     0     4     4  46.2       46.2       0.4746    
   1   135   1U    0     2     2  46.2       46.2       0.7119    
   1   135   2U    0     3     3  46.2       46.2       0.1780    
   1   135   3     0     4     4  46.2       46.2       0.04449   
   1   136   1     0     5     5  46.3       46.3       0.06674   
   1   137   1     0     5     5  46.3       46.3       0.06674   
   1   138   1     0     1     1  46.4       46.4       0.06674   
   1   139   1     0     3     3  46.5       46.5       0.06674   
   1   140   1     0     4     4  46.6       46.6       0.1001    
   1   141   1     0     1     1  46.7       46.7       0.1502    
   1   142   1     0     1     1  47.0       47.0       0.3003    
   1   143   1     0     2     2  47.6       47.6       0.6007    
   1   144   1     0     2     2  48.5       48.5       0.9010    
   1   145   1     0     3     3  49.5       49.5       1.000     
   1   146   1     0     3     3  50.5       50.5       1.000     
   1   147   1     0     4     4  51.5       51.5       1.000     
   1   148   1U    0     4     4  51.5       51.5       1.000     
   1   148   2U    0     2     2  51.5       51.5       0.2500    
   1   148   3     0     3     3  51.6       51.6       0.06250   
   1   149   1     0     2     2  51.7       51.7       0.09375   
   1   150   1     0     1     1  51.8       51.8       0.1406    
   1   151   1U    0     5     5  51.8       51.8       0.2812    
   1   151   2     0     6     6  51.9       51.9       0.07031   
   1   152   1     0     4     4  52.0       52.0       0.07031   
   1   153   1     0     1     1  52.0       52.0       0.07031   
   1   154   1     0     1     1  52.2       52.2       0.1406    
   1   155   1     0     1     1  52.5       52.5       0.2812    
   1   156   1     0     3     3  53.0       53.0       0.5625    
   1   157   1     0     5     5  53.9       53.9       0.8438    
   1   158   1U    0     4     4  53.9       53.9       0.8438    
   1   158   2U    0     2     2  53.9       53.9       0.2109    
   1   158   3     0     5     5  53.9       53.9       0.05273   
   1   159   1     0     7     7  54.0       54.0       0.05273   
   1   160   1     0     3     3  54.0       54.0       0.05273   
   1   161   1     0     1     1  54.1       54.1       0.05273   
   1   162   1     0     1     1  54.2       54.2       0.1055    
   1   163   1     0     1     1  54.4       54.4       0.2109    
   1   164   1     0     2     2  54.8       54.8       0.4219    
   1   165   1     0     2     2  55.4       55.4       0.6328    
   1   166   1     0     3     3  56.4       56.4       0.9492    
   1   167   1U    0     5     5  56.4       56.4       1.000     
   1   167   2     0     3     3  56.6       56.6       0.2500    
   1   168   1     0     3     3  57.0       57.0       0.3750    
   1   169   1     0     4     4  57.6       57.6       0.5625    
   1   170   1     0     4     4  58.4       58.4       0.8438    
   1   171   1U    0     4     4  58.4       58.4       1.000     
   1   171   2U    0     2     2  58.4       58.4       0.2500    
   1   171   3     0     3     3  58.5       58.5       0.06250   
   1   172   1     0     2     2  58.6       58.6       0.09375   
   1   173   1     0     1     1  58.7       58.7       0.1406    
   1   174   1U    0     4     4  58.7       58.7       0.2812    
   1   174   2     0     1     1  58.8       58.8       0.07031   
   1   175   1U    0     5     5  58.8       58.8       0.1406    
   1   175   2     0     1     1  58.8       58.8       0.03516   
   1   176   1     0     3     3  58.9       58.9       0.07031   
   1   177   1     0     2     2  59.0       59.0       0.1055    
   1   178   1     0     1     1  59.2       59.2       0.1582    
   1   179   1     0     2     2  59.5       59.5       0.3164    
   1   180   1     0     3     3  60.0       60.0       0.4746    
   1   181   1     0     3     3  60.7       60.7       0.7119    
   1   182   1U    0     4     4  60.7       60.7       1.000     
   1   182   2U    0     4     4  60.7       60.7       0.2500    
   1   182   3     0     4     4  60.7       60.7       0.06250   
   1   183   1     0     1     1  60.8       60.8       0.09375   
   1   184   1     0     1     1  61.0       61.0       0.1875    
   1   185   1     0     1     1  61.4       61.4       0.3750    
   1   186   1     0     2     2  62.1       62.1       0.7500    
   1   187   1     0     2     2  63.1       63.1       1.000     
   1   188   1     0     4     4  64.1       64.1       1.000     
   1   189   1     0     3     3  65.1       65.1       1.000     
   1   190   1U    0     4     4  65.1       65.1       1.000     
   1   190   2U    0     3     3  65.1       65.1       0.2500    
   1   190   3     0     3     3  65.2       65.2       0.06250   
   1   191   1     0     1     1  65.3       65.3       0.09375   
   1   192   1     0     1     1  65.5       65.5       0.1875    
   1   193   1     0     2     2  65.9       65.9       0.3750    
   1   194   1     0     3     3  66.4       66.4       0.5625    
   1   195   1     0     5     5  67.3       67.3       0.8438    
   1   196   1U    0     5     5  67.3       67.3       0.8438    
   1   196   2U    0     2     2  67.3       67.3       0.2109    
   1   196   3     0     4     4  67.3       67.3       0.05273   
   1   197   1     0     1     1  67.4       67.4       0.05273   
   1   198   1     0     3     3  67.5       67.5       0.1055    
   1   199   1     0     6     6  67.6       67.6       0.1582    
   1   200   1     0     1     1  67.8       67.8       0.1582    
   1   201   1     0     1     1  67.9       67.9       0.1582    
   1   202   1     0     1     1  68.3       68.3       0.3164    
   1   203   1     0     2     2  68.9       68.9       0.6328    
   1   204   1     0     2     2  69.8       69.8       0.9492    
   1   205   1     0     4     4  70.8       70.8       1.000     
   1   206   1U    0     4     4  70.8       70.8       1.000     
   1   206   2     0     2     2  71.1       71.1       0.2500    
   1   207   1     0     3     3  71.5       71.5       0.3750    
   1   208   1U    0     5     5  71.5       71.5       0.5625    
   1   208   2     0     6     6  71.6       71.6       0.1406    
   1   209   1     0     1     1  71.7       71.7       0.1406    
   1   210   1     0     4     4  71.9       71.9       0.1406    
   1   211   1U    0     4     4  71.9       71.9       0.2109    
   1   211   2U    0     4     4  71.9       71.9       0.05273   
   1   211   3     0     4     4  71.9       71.9       0.01318   
   1   212   1U    0     5     5  71.9       71.9       0.01978   
   1   212   2     0     5     5  71.9       71.9       0.004944  
   1   213   1     0     4     4  71.9       71.9       0.004944  
   1   214   1     0     1     1  71.9       71.9       0.004944  
   1   215   1     0     1     1  71.9       71.9       0.009888  
   1   216   1     0     1     1  71.9       71.9       0.01978   
   1   217   1     0     1     1  72.0       72.0       0.03955   
   1   218   1     0     1     1  72.1       72.1       0.07910   
   1   219   1     0     1     1  72.2       72.2       0.1582    
   1   220   1     0     1     1  72.5       72.5       0.3164    
   1   221   1     0     5     5  73.2       73.2       0.6328    
   1   222   1U    0     4     4  73.2       73.2       0.6328    
   1   222   2U    0     3     3  73.2       73.2       0.1582    
   1   222   3     0     3     3  73.2       73.2       0.03955   
   1   223   1     0     1     1  73.3       73.3       0.03955   
   1   224   1     0     1     1  73.3       73.3       0.07910   
   1   225   1     0     2     2  73.5       73.5       0.1582    
   1   226   1     0     3     3  73.7       73.7       0.2373    
   1   227   1     0     5     5  74.1       74.1       0.3560    
                          
 THE ANALYSIS HAS NOT BEEN COMPLETED
