*Heading
 Thermal and mechanical analysis
** Job name: ThermalAnalysis Model name: Model-1
** Generated by: Abaqus/CAE Learning Edition 2024
*Preprint, echo=NO, model=NO, history=NO, contact=NO
**
** PARTS
**
*Part, name=Cu
*Node
      1,           5.,           0.,   8.66025448
      2,          -5.,           0.,   8.66025448
      3,         -10.,           0.,           0.
      4,          -5.,           0.,  -8.66025448
      5,           5.,           0.,  -8.66025448
      6,          10.,           0.,           0.
      7,           0.,           0.,           0.
      8,   5.66185713,   10.0152178,   8.54465199
      9,   -4.5256052,   10.0034943,   9.19687939
     10,  -10.2499542,   9.99727154,           0.
     11,   -4.5256052,   10.0034943,  -9.19687939
     12,   5.66185713,   10.0152178,  -8.54465199
     13,   10.2503462,   10.0207682,           0.
     14,  0.378787488,    10.009244,           0.
     15,   6.12063742,   20.0443611,   8.32559586
     16,  -3.99768639,   20.0444527,   9.52870655
     17,  -10.3333321,   20.0445042,           0.
     18,  -3.99768639,   20.0444527,  -9.52870655
     19,   6.12063742,   20.0443611,  -8.32559586
     20,   10.3333321,   20.0443192,           0.
** ... 57 like lines cut
*Element, type=C3D8T
 1,  4,  7,  6,  5, 11, 14, 13, 12
 2,  1,  6,  7,  2,  8, 13, 14,  9
 3,  7,  4,  3,  2, 14, 11, 10,  9
 4, 11, 14, 13, 12, 18, 21, 20, 19
 5,  8, 13, 14,  9, 15, 20, 21, 16
 6, 14, 11, 10,  9, 21, 18, 17, 16
 7, 18, 21, 20, 19, 25, 28, 27, 26
 8, 15, 20, 21, 16, 22, 27, 28, 23
 9, 21, 18, 17, 16, 28, 25, 24, 23
10, 25, 28, 27, 26, 32, 35, 34, 33
11, 22, 27, 28, 23, 29, 34, 35, 30
12, 28, 25, 24, 23, 35, 32, 31, 30
13, 32, 35, 34, 33, 39, 42, 41, 40
14, 29, 34, 35, 30, 36, 41, 42, 37
15, 35, 32, 31, 30, 42, 39, 38, 37
16, 39, 42, 41, 40, 46, 49, 48, 47
17, 36, 41, 42, 37, 43, 48, 49, 44
18, 42, 39, 38, 37, 49, 46, 45, 44
19, 46, 49, 48, 47, 53, 56, 55, 54
20, 43, 48, 49, 44, 50, 55, 56, 51
** ... 10 like lines cut
*Nset, nset=Cuvolume, generate
  1,  77,   1
*Elset, elset=Cuvolume, generate
  1,  30,   1
*Nset, nset=_G4, internal, generate
  1,  77,   1
*Elset, elset=_G4, internal, generate
  1,  30,   1
*Elset, elset=_ContactSurfCu_S5, internal
  1,  3,  4,  6,  7,  9, 10, 12, 13, 15, 16, 18, 19, 21, 22, 24
 25, 27, 28, 30
*Elset, elset=_ContactSurfCu_S6, internal
  1,  2,  4,  5,  7,  8, 10, 11, 13, 14, 16, 17, 19, 20, 22, 23
 25, 26, 28, 29
*Elset, elset=_ContactSurfCu_S3, internal, generate
  2,  29,   3
*Elset, elset=_ContactSurfCu_S4, internal, generate
  3,  30,   3
*Surface, type=ELEMENT, name=ContactSurfCu
_ContactSurfCu_S5, S5
_ContactSurfCu_S6, S6
_ContactSurfCu_S4, S4
_ContactSurfCu_S3, S3
** Section: Via
*Solid Section, elset=_G4, material=Cu
,
*End Part
**  
*Part, name=Si
*Node
      1,           0.,         100.,           5.
      2,          -5.,         100.,           0.
      3,           0.,         100.,          -5.
      4,           5.,         100.,           0.
      5,        -100.,         100.,         100.
      6,         100.,         100.,         100.
      7,         100.,         100.,        -100.
      8,        -100.,         100.,        -100.
      9,         -50.,         100.,         100.
     10,           0.,         100.,         100.
     11,          50.,         100.,         100.
     12,         100.,         100.,         -50.
     13,         100.,         100.,           0.
     14,         100.,         100.,          50.
     15,         -50.,         100.,        -100.
     16,           0.,         100.,        -100.
     17,          50.,         100.,        -100.
     18,        -100.,         100.,         -50.
     19,        -100.,         100.,           0.
     20,        -100.,         100.,          50.
** ... 717 like lines cut
*Element, type=C3D8T
  1,  54,  30,  29,  25, 121,  97,  96,  92
  2,  31,  52,  26,  32,  98, 119,  93,  99
  3,   1,  52,  23,   2,  68, 119,  90,  69
  4,  64,  53,  24,  58, 131, 120,  91, 125
  5,  24,  53,   3,   2,  91, 120,  70,  69
  6,  62,  39,  36,  27, 129, 106, 103,  94
  7,  33,  57,  28,  63, 100, 124,  95, 130
  8,  22,  28,  57,  34,  89,  95, 124, 101
  9,  66,  29,  30,  38, 133,  96,  97, 105
 10,  21,   4,  54,  25,  88,  71, 121,  92
 11,  22,   3,  53,  28,  89,  70, 120,  95
 12,  60,  37,  32,  26, 127, 104,  99,  93
 13,  11,  47,  14,   6,  78, 114,  81,  73
 14,  12,  46,  17,   7,  79, 113,  84,  74
 15,  55,   1,   4,  21, 122,  68,  71,  88
 16,  15,  51,  18,   8,  82, 118,  85,  75
 17,  54,   4,   3,  22, 121,  71,  70,  89
 18,  23,  52,  31,  41,  90, 119,  98, 108
 19,   5,  20,  45,   9,  72,  87, 112,  76
 20,  44,  37,  48,  47, 111, 104, 115, 114
** ... 550 like lines cut
*Nset, nset=Sivolume, generate
   1,  737,    1
*Elset, elset=Sivolume, generate
   1,  570,    1
*Nset, nset=SiLateralSurf
   5,   6,   7,   8,   9,  10,  11,  12,  13,  14,  15,  16,  17,  18,  19,  20
  72,  73,  74,  75,  76,  77,  78,  79,  80,  81,  82,  83,  84,  85,  86,  87
 139, 140, 141, 142, 143, 144, 145, 146, 147, 148, 149, 150, 151, 152, 153, 154
 206, 207, 208, 209, 210, 211, 212, 213, 214, 215, 216, 217, 218, 219, 220, 221
 273, 274, 275, 276, 277, 278, 279, 280, 281, 282, 283, 284, 285, 286, 287, 288
 340, 341, 342, 343, 344, 345, 346, 347, 348, 349, 350, 351, 352, 353, 354, 355
 407, 408, 409, 410, 411, 412, 413, 414, 415, 416, 417, 418, 419, 420, 421, 422
 474, 475, 476, 477, 478, 479, 480, 481, 482, 483, 484, 485, 486, 487, 488, 489
 541, 542, 543, 544, 545, 546, 547, 548, 549, 550, 551, 552, 553, 554, 555, 556
 608, 609, 610, 611, 612, 613, 614, 615, 616, 617, 618, 619, 620, 621, 622, 623
 675, 676, 677, 678, 679, 680, 681, 682, 683, 684, 685, 686, 687, 688, 689, 690
*Elset, elset=SiLateralSurf
  13,  14,  16,  19,  22,  31,  40,  41,  45,  46,  48,  51,  70,  71,  73,  76
  79,  88,  97,  98, 102, 103, 105, 108, 127, 128, 130, 133, 136, 145, 154, 155
 159, 160, 162, 165, 184, 185, 187, 190, 193, 202, 211, 212, 216, 217, 219, 222
 241, 242, 244, 247, 250, 259, 268, 269, 273, 274, 276, 279, 298, 299, 301, 304
 307, 316, 325, 326, 330, 331, 333, 336, 355, 356, 358, 361, 364, 373, 382, 383
 387, 388, 390, 393, 412, 413, 415, 418, 421, 430, 439, 440, 444, 445, 447, 450
 469, 470, 472, 475, 478, 487, 496, 497, 501, 502, 504, 507, 526, 527, 529, 532
 535, 544, 553, 554, 558, 559, 561, 564
*Nset, nset=_G5, internal, generate
   1,  737,    1
*Elset, elset=_G5, internal, generate
   1,  570,    1
*Elset, elset=_ContactSurfSi_S6, internal, generate
   3,  516,   57
*Elset, elset=_ContactSurfSi_S5, internal, generate
   5,  518,   57
*Elset, elset=_ContactSurfSi_S4, internal
  15,  17,  72,  74, 129, 131, 186, 188, 243, 245, 300, 302, 357, 359, 414, 416
 471, 473, 528, 530
*Surface, type=ELEMENT, name=ContactSurfSi
_ContactSurfSi_S6, S6
_ContactSurfSi_S5, S5
_ContactSurfSi_S4, S4
** Section: wafer
*Solid Section, elset=_G5, material=Si
,
*End Part
**  
**
** ASSEMBLY
**
*Assembly, name=Assembly
**  
*Instance, name=Cu, part=Cu
*End Instance
**  
*Instance, name=Si, part=Si
*End Instance
**  
** Constraint: CuSiTie
*Tie, name=CuSiTie, adjust=yes
Si.ContactSurfSi, Cu.ContactSurfCu
*End Assembly
*Amplitude, name=ThermalCycle, time=TOTAL TIME
             0.,             25.,           1.833,            300.,           2.833,            300.,           4.433,            -65.
          5.433,            -65.,              7.,             25.,           8.833,            300.,           9.833,            300.
         11.433,            -65.,          12.433,            -65.,             14.,             25.,          15.833,            300.
         16.833,            300.,          18.433,            -65.,          19.433,            -65.,             21.,             25.
         22.833,            300.,          23.833,            300.,          25.433,            -65.,          26.433,            -65.
            28.,             25.,          29.833,            300.,          30.833,            300.,          32.433,            -65.
         33.433,            -65.,             35.,             25.,          36.833,            300.,          37.833,            300.
         39.433,            -65.,          40.433,            -65.,             42.,             25.,          43.833,            300.
         44.833,            300.,          46.433,            -65.,          47.433,            -65.,             49.,             25.
         50.833,            300.,          51.833,            300.,          53.433,            -65.,          54.433,            -65.
            56.,             25.,          57.833,            300.,          58.833,            300.,          60.433,            -65.
         61.433,            -65.,             63.,             25.,          64.833,            300.,          65.833,            300.
         67.433,            -65.,          68.433,            -65.,             70.,             25.
** 
** MATERIALS
** 
*Material, name=Cu
*Conductivity
 0.401,
*Damage Initiation, criterion=DUCTILE
 0.15, 0.1,  0.
*Damage Evolution, type=DISPLACEMENT
 0.1,
*Density
 8.96e-12,
*Elastic
120000., 0.34
*Expansion
 1.7e-05,
*Plastic
    140.,         0.
 149.666, 0.00100503
 151.785, 0.00201005
 153.234, 0.00301508
 154.369,  0.0040201
 155.316, 0.00502513
 156.136, 0.00603015
 156.863, 0.00703518
 157.519,  0.0080402
 158.119, 0.00904523
 158.674,  0.0100503
  159.19,  0.0110553
 159.673,  0.0120603
 160.129,  0.0130653
  160.56,  0.0140704
  160.97,  0.0150754
  161.36,  0.0160804
 161.734,  0.0170854
 162.092,  0.0180905
 162.437,  0.0190955
** ... 180 like lines cut
*Specific Heat
 0.00039,
*Material, name=Si
*Conductivity
 0.149,
*Density
 2.33e-12,
*Elastic
130000., 0.28
*Expansion
 2.8e-06,
*Specific Heat
 0.0007,
** 
** BOUNDARY CONDITIONS
** 
** Name: FixedSiLateral Type: Displacement/Rotation
*Boundary, fixed
Si.SiLateralSurf, 1, 1
Si.SiLateralSurf, 2, 2
Si.SiLateralSurf, 3, 3
** ----------------------------------------------------------------
** 
** STEP: TCTCondition
** 
*Step, name=TCTCondition, nlgeom=NO, inc=100000
*Coupled Temperature-displacement, creep=none, deltmx=1.
0.1, 70., 1e-05, 1.
** 
** BOUNDARY CONDITIONS
** 
** Name: CuTempBC Type: Temperature
*Boundary, amplitude=ThermalCycle
Cu.Cuvolume, 11, 11, 1.
** Name: SiTempBC Type: Temperature
*Boundary, amplitude=ThermalCycle
Si.Sivolume, 11, 11, 1.
** 
** OUTPUT REQUESTS
** 
*Restart, write, frequency=0
** 
** FIELD OUTPUT: F-Output-1
** 
*Output, field, variable=PRESELECT
** 
** HISTORY OUTPUT: H-Output-1
** 
*Output, history, variable=PRESELECT
*End Step
