*Heading
 Thermal and mechanical analysis
** Job name: ThermalAnalysis Model name: Model-1
** Generated by: Abaqus/CAE Learning Edition 2024
*Preprint, echo=NO, model=NO, history=NO, contact=NO
**
** PARTS
**
*Part, name=Cu
*Node
      1,           0.,           0.
      2,        16.25,           0.
      3,   14.1028986,   5.68367958
      4,   13.0541782,   11.6703033
      5,   12.9258451,   17.7502346
      6,   13.4308357,   23.8130932
      7,   15.2840261,    35.841053
      8,   16.9612732,   47.8936081
      9,     17.38344,   53.9635315
     10,   17.4091568,   60.0477448
     11,   16.1726265,    72.145874
     12,   14.9750633,   78.1115799
     13,   11.8479166,   89.8721771
     14,         8.75,         100.
     15,           0.,         100.
     16,   4.63104057,           0.
     17,   10.0076923,           0.
     18,   14.2926311,   29.8368664
     19,   16.2227612,   41.8535805
     20,   17.0019436,   66.1182861
** ... 67 like lines cut
*Element, type=CAX3T
1, 85, 79, 78
2, 66, 60, 61
*Element, type=CAX4T
 3, 62, 63, 64, 65
 4, 65, 66, 61, 62
 5, 59, 60, 66, 73
 6, 87, 38, 39, 59
 7, 57, 35, 36, 58
 8, 51, 84, 71, 52
 9, 74, 52, 71, 12
10, 52, 28, 29, 51
11, 27, 48, 49, 26
12, 26, 49, 50, 25
13, 13, 50, 76, 21
14, 24, 53, 23, 15
15, 30, 46, 51, 29
16, 63, 83, 82, 64
17, 17,  2,  3, 82
18, 67, 69, 78, 79
19, 76, 48, 52, 74
20, 25, 50, 53, 24
21, 14, 23, 53, 22
22, 31, 32, 55, 54
** ... 43 like lines cut
*Nset, nset=ContactLineCu
  2,  3,  4,  5,  6,  7,  8,  9, 10, 11, 12, 13, 14, 18, 19, 20
 21, 22
*Elset, elset=ContactLineCu
 13, 17, 21, 26, 37, 38, 42, 44, 45, 51, 52, 53, 54, 57, 58, 59
 60,
*Nset, nset=AllSurfaceCu, generate
  1,  87,   1
*Elset, elset=AllSurfaceCu, generate
  1,  65,   1
*Nset, nset=CenterLineCu
  1, 15, 24, 25, 26, 27, 28, 29, 30, 31, 32, 33, 34, 35, 36, 37
 38, 39, 40, 41, 42, 43, 44
*Elset, elset=CenterLineCu
  6,  7, 10, 11, 12, 14, 15, 20, 22, 23, 24, 25, 27, 28, 30, 32
 33, 34, 35, 36, 40, 49
** Section: Via
*Solid Section, elset=AllSurfaceCu, material=Cu
,
*End Part
**  
*Part, name=Si
*Node
      1,         100.,           0.
      2,        16.25,           0.
      3,         100.,         100.
      4,         8.75,         100.
      5,    14.126893,   5.59525299
      6,   13.0709963,   11.4878292
      7,   12.9157505,   17.4755478
      8,   13.3877869,   23.4491329
      9,    16.887085,   47.1643829
     10,   17.0994148,   65.1151505
     11,   15.2347107,   76.9491119
     12,   12.2285147,   88.5515671
     13,   94.0178604,           0.
     14,   88.0357132,           0.
     15,   82.0535736,           0.
     16,   76.0714264,           0.
     17,   70.0892868,           0.
     18,   64.1071396,           0.
     19,       58.125,           0.
     20,   52.1428566,           0.
** ... 280 like lines cut
*Element, type=CAX3T
1,  78,  27,  26
2, 167, 122,  79
3, 260, 249, 229
4, 299, 287, 284
5, 290, 291, 283
*Element, type=CAX4T
  6,  20,  19,  73, 126
  7,  33,  84,  85,  34
  8,  30,  81,  82,  31
  9,  48,  47,  96,  64
 10, 150, 186, 108,  97
 11,  66,  12,  62, 109
 12,  68,   7,   6,  69
 13,   7,  68,  67,   8
 14,   5,  70,  69,   6
 15,  13,   1,  41,  92
 16,  92,  41,  40,  91
 17,  91,  90, 114, 153
 18, 170, 205, 208, 171
 19,  88,  87, 116, 115
 20,  17,  16, 130, 127
 21,  18,  17, 127,  71
 22, 111, 112,  67,  68
 23,  71,  73,  19,  18
 24, 168,  71, 127, 174
 25, 126,  74,  21,  20
** ... 245 like lines cut
*Nset, nset=ContactLineSi
  2,  4,  5,  6,  7,  8,  9, 10, 11, 12, 56, 57, 58, 59, 60, 61
 62, 63
*Elset, elset=ContactLineSi
 11, 12, 13, 14, 41, 42, 44, 45, 54, 55, 56, 57, 58, 60, 65, 68
 70,
*Nset, nset=AllSurfaceSi, generate
   1,  300,    1
*Elset, elset=AllSurfaceSi, generate
   1,  270,    1
*Nset, nset=LateralLineSi
  1,  3, 26, 27, 28, 29, 30, 31, 32, 33, 34, 35, 36, 37, 38, 39
 40, 41
*Elset, elset=LateralLineSi
  1,  7,  8, 15, 16, 27, 29, 30, 32, 33, 36, 37, 38, 39, 40, 69
 84,
** Section: wafer
*Solid Section, elset=AllSurfaceSi, material=Si
,
*End Part
**  
**
** ASSEMBLY
**
*Assembly, name=Assembly
**  
*Instance, name=Cu, part=Cu
*End Instance
**  
*Instance, name=Si, part=Si
*End Instance
**  
*Surface, type=NODE, name=Cu_ContactLineCu_CNS_, internal
Cu.ContactLineCu, 1.
*Surface, type=NODE, name=Si_ContactLineSi_CNS_, internal
Si.ContactLineSi, 1.
** Constraint: CuSiTie
*Tie, name=CuSiTie, adjust=yes
Si_ContactLineSi_CNS_, Cu_ContactLineCu_CNS_
*End Assembly
*Amplitude, name=ThermalCycle, time=TOTAL TIME
             0.,             25.,           1.833,            300.,           2.833,            300.,           4.433,            -65.
          5.433,            -65.,              7.,             25.,           8.833,            300.,           9.833,            300.
         11.433,            -65.,          12.433,            -65.,             14.,             25.,          15.833,            300.
         16.833,            300.,          18.433,            -65.,          19.433,            -65.,             21.,             25.
         22.833,            300.,          23.833,            300.,          25.433,            -65.,          26.433,            -65.
            28.,             25.,          29.833,            300.,          30.833,            300.,          32.433,            -65.
         33.433,            -65.,             35.,             25.,          36.833,            300.,          37.833,            300.
         39.433,            -65.,          40.433,            -65.,             42.,             25.,          43.833,            300.
         44.833,            300.,          46.433,            -65.,          47.433,            -65.,             49.,             25.
         50.833,            300.,          51.833,            300.,          53.433,            -65.,          54.433,            -65.
            56.,             25.,          57.833,            300.,          58.833,            300.,          60.433,            -65.
         61.433,            -65.,             63.,             25.,          64.833,            300.,          65.833,            300.
         67.433,            -65.,          68.433,            -65.,             70.,             25.,          71.833,            300.
         72.833,            300.,          74.433,            -65.,          75.433,            -65.,             77.,             25.
         78.833,            300.,          79.833,            300.,          81.433,            -65.,          82.433,            -65.
            84.,             25.,          85.833,            300.,          86.833,            300.,          88.433,            -65.
         89.433,            -65.,             91.,             25.,          92.833,            300.,          93.833,            300.
         95.433,            -65.,          96.433,            -65.,             98.,             25.,          99.833,            300.
        100.833,            300.,         102.433,            -65.,         103.433,            -65.,            105.,             25.
** 
** MATERIALS
** 
*Material, name=Cu
*Conductivity
 0.401,
*Damage Initiation, criterion=DUCTILE
 0.15, 0.1,  0.
*Damage Evolution, type=DISPLACEMENT
 0.1,
*Density
 8.96e-12,
*Elastic
120000., 0.34
*Expansion
 1.785e-05,
*Plastic
    150.,         0.
 159.666, 0.00100503
 161.785, 0.00201005
 163.234, 0.00301508
 164.369,  0.0040201
 165.316, 0.00502513
 166.136, 0.00603015
 166.863, 0.00703518
 167.519,  0.0080402
 168.119, 0.00904523
 168.674,  0.0100503
  169.19,  0.0110553
 169.673,  0.0120603
 170.129,  0.0130653
  170.56,  0.0140704
  170.97,  0.0150754
  171.36,  0.0160804
 171.734,  0.0170854
 172.092,  0.0180905
 172.437,  0.0190955
** ... 180 like lines cut
*Specific Heat
 0.00039,
*Material, name=Si
*Conductivity
 0.149,
*Density
 2.33e-12,
*Elastic
130000., 0.28
*Expansion
 2.87e-06,
*Specific Heat
 0.0007,
** 
** BOUNDARY CONDITIONS
** 
** Name: FixedCuCenter Type: Displacement/Rotation
*Boundary, fixed
Cu.CenterLineCu, 1, 1
Cu.CenterLineCu, 3, 3
** Name: FixedSiLateral Type: Displacement/Rotation
*Boundary, fixed
Si.LateralLineSi, 1, 1
Si.LateralLineSi, 2, 2
Si.LateralLineSi, 3, 3
** ----------------------------------------------------------------
** 
** STEP: TCTCondition
** 
*Step, name=TCTCondition, nlgeom=NO, inc=100000
*Coupled Temperature-displacement, creep=none, deltmx=1.
0.1, 105., 1e-05, 1.
** 
** BOUNDARY CONDITIONS
** 
** Name: CuTempBC Type: Temperature
*Boundary, amplitude=ThermalCycle
Cu.AllSurfaceCu, 11, 11, 1.
** Name: SiTempBC Type: Temperature
*Boundary, amplitude=ThermalCycle
Si.AllSurfaceSi, 11, 11, 1.
** 
** OUTPUT REQUESTS
** 
*Restart, write, frequency=0
** 
** FIELD OUTPUT: F-Output-1
** 
*Output, field, variable=PRESELECT
** 
** HISTORY OUTPUT: H-Output-1
** 
*Output, history, variable=PRESELECT
*End Step
