 Abaqus/Standard Learning Edition 2024                  DATE 14-5-2025 TIME 00:08:38
 SUMMARY OF JOB INFORMATION:
 STEP  INC ATT SEVERE EQUIL TOTAL  TOTAL      STEP       INC OF       DOF    IF
               DISCON ITERS ITERS  TIME/    TIME/LPF    TIME/LPF    MONITOR RIKS
               ITERS               FREQ
   1     1   1     0     1     1  0.100      0.100      0.1000    
   1     2   1     0     2     2  0.200      0.200      0.1000    
   1     3   1     0     1     1  0.300      0.300      0.1000    
   1     4   1     0     2     2  0.500      0.500      0.2000    
   1     5   1     0     3     3  0.800      0.800      0.3000    
   1     6   1     0     3     3  1.25       1.25       0.4500    
   1     7   1     0     3     3  1.93       1.93       0.6750    
   1     8   1U    0     6     6  1.93       1.93       1.000     
   1     8   2     0     5     5  2.17       2.17       0.2500    
   1     9   1     0     1     1  2.42       2.42       0.2500    
   1    10   1     0     1     1  2.67       2.67       0.2500    
   1    11   1U    0     4     4  2.67       2.67       0.5000    
   1    11   2     0     1     1  2.80       2.80       0.1250    
   1    12   1     0     2     2  3.05       3.05       0.2500    
   1    13   1     0     1     1  3.42       3.42       0.3750    
   1    14   1     0     3     3  4.17       4.17       0.7500    
   1    15   1     0     2     2  5.17       5.17       1.000     
   1    16   1U    0     4     4  5.17       5.17       1.000     
   1    16   2     0     4     4  5.42       5.42       0.2500    
   1    17   1     0     2     2  5.80       5.80       0.3750    
   1    18   1     0     1     1  6.36       6.36       0.5625    
   1    19   1     0     2     2  7.36       7.36       1.000     
   1    20   1     0     3     3  8.36       8.36       1.000     
   1    21   1     0     3     3  9.36       9.36       1.000     
   1    22   1U    0     5     5  9.36       9.36       1.000     
   1    22   2     0     4     4  9.61       9.61       0.2500    
   1    23   1U    0     5     5  9.61       9.61       0.3750    
   1    23   2     0     1     1  9.71       9.71       0.09375   
   1    24   1     0     2     2  9.89       9.89       0.1875    
   1    25   1     0     2     2  10.2       10.2       0.2812    
   1    26   1     0     1     1  10.6       10.6       0.4219    
   1    27   1     0     4     4  11.4       11.4       0.8438    
   1    28   1     0     3     3  12.4       12.4       1.000     
   1    29   1     0     1     1  13.4       13.4       1.000     
   1    30   1     0     2     2  14.4       14.4       1.000     
   1    31   1     0     3     3  15.4       15.4       1.000     
   1    32   1     0     3     3  16.4       16.4       1.000     
   1    33   1U    0     5     5  16.4       16.4       1.000     
   1    33   2     0     2     2  16.7       16.7       0.2500    
   1    34   1U    0     5     5  16.7       16.7       0.3750    
   1    34   2     0     1     1  16.8       16.8       0.09375   
   1    35   1U    0     5     5  16.8       16.8       0.1875    
   1    35   2     0     1     1  16.8       16.8       0.04688   
   1    36   1     0     4     4  16.9       16.9       0.09375   
   1    37   1     0     1     1  17.1       17.1       0.1406    
   1    38   1     0     1     1  17.3       17.3       0.2812    
   1    39   1     0     2     2  17.9       17.9       0.5625    
   1    40   1     0     3     3  18.8       18.8       0.8438    
   1    41   1U    0     5     5  18.8       18.8       1.000     
   1    41   2     0     4     4  19.0       19.0       0.2500    
   1    42   1     0     1     1  19.4       19.4       0.3750    
   1    43   1     0     1     1  20.1       20.1       0.7500    
   1    44   1     0     1     1  21.1       21.1       1.000     
   1    45   1     0     4     4  22.1       22.1       1.000     
   1    46   1     0     4     4  23.1       23.1       1.000     
   1    47   1U    0     6     6  23.1       23.1       1.000     
   1    47   2     0     5     5  23.4       23.4       0.2500    
   1    48   1     0     1     1  23.6       23.6       0.2500    
   1    49   1     0     2     2  23.9       23.9       0.2500    
   1    50   1     0     1     1  24.3       24.3       0.3750    
   1    51   1     0     3     3  25.0       25.0       0.7500    
   1    52   1     0     3     3  26.0       26.0       1.000     
   1    53   1U    0     5     5  26.0       26.0       1.000     
   1    53   2     0     3     3  26.3       26.3       0.2500    
   1    54   1     0     2     2  26.6       26.6       0.3750    
   1    55   1     0     1     1  27.2       27.2       0.5625    
   1    56   1     0     1     1  28.2       28.2       1.000     
   1    57   1     0     4     4  29.2       29.2       1.000     
   1    58   1     0     4     4  30.2       30.2       1.000     
   1    59   1U    0     6     6  30.2       30.2       1.000     
   1    59   2     0     4     4  30.4       30.4       0.2500    
   1    60   1     0     1     1  30.8       30.8       0.3750    
   1    61   1U    0     4     4  30.8       30.8       0.7500    
   1    61   2     0     2     2  31.0       31.0       0.1875    
   1    62   1     0     1     1  31.3       31.3       0.2812    
   1    63   1     0     1     1  31.8       31.8       0.5625    
   1    64   1     0     3     3  32.8       32.8       1.000     
   1    65   1U    0     5     5  32.8       32.8       1.000     
   1    65   2     0     4     4  33.1       33.1       0.2500    
   1    66   1     0     2     2  33.5       33.5       0.3750    
   1    67   1     0     1     1  34.0       34.0       0.5625    
   1    68   1     0     1     1  35.0       35.0       1.000     
   1    69   1     0     3     3  36.0       36.0       1.000     
   1    70   1     0     4     4  37.0       37.0       1.000     
   1    71   1U    0     4     4  37.0       37.0       1.000     
   1    71   2     0     4     4  37.3       37.3       0.2500    
   1    72   1     0     1     1  37.7       37.7       0.3750    
   1    73   1U    0     4     4  37.7       37.7       0.7500    
   1    73   2     0     2     2  37.8       37.8       0.1875    
   1    74   1     0     1     1  38.1       38.1       0.2812    
   1    75   1     0     1     1  38.7       38.7       0.5625    
   1    76   1     0     3     3  39.7       39.7       1.000     
   1    77   1     0     5     5  40.7       40.7       1.000     
   1    78   1     0     1     1  41.7       41.7       1.000     
   1    79   1     0     1     1  42.7       42.7       1.000     
   1    80   1     0     4     4  43.7       43.7       1.000     
   1    81   1     0     2     2  44.7       44.7       1.000     
   1    82   1U    0     9     9  44.7       44.7       1.000     
   1    82   2U    0     4     4  44.7       44.7       0.5000    
   1    82   3     0     4     4  44.8       44.8       0.1250    
   1    83   1U    0     5     5  44.8       44.8       0.1875    
   1    83   2     0     2     2  44.9       44.9       0.04688   
   1    84   1     0     1     1  44.9       44.9       0.07031   
   1    85   1     0     1     1  45.1       45.1       0.1406    
   1    86   1     0     1     1  45.4       45.4       0.2812    
   1    87   1     0     2     2  45.9       45.9       0.5625    
   1    88   1     0     3     3  46.8       46.8       0.8438    
   1    89   1U    0     5     5  46.8       46.8       1.000     
   1    89   2     0     4     4  47.0       47.0       0.2500    
   1    90   1     0     1     1  47.4       47.4       0.3750    
   1    91   1     0     1     1  48.1       48.1       0.7500    
   1    92   1     0     1     1  49.1       49.1       1.000     
   1    93   1     0     3     3  50.1       50.1       1.000     
   1    94   1     0     5     5  51.1       51.1       1.000     
   1    95   1U    0     6     6  51.1       51.1       1.000     
   1    95   2U    0     4     4  51.1       51.1       0.2500    
   1    95   3     0     1     1  51.2       51.2       0.06250   
   1    96   1     0     1     1  51.3       51.3       0.06250   
   1    97   1     0     1     1  51.4       51.4       0.1250    
   1    98   1     0     1     1  51.6       51.6       0.2500    
   1    99   1     0     2     2  52.1       52.1       0.5000    
   1   100   1     0     3     3  52.9       52.9       0.7500    
   1   101   1     0     3     3  53.9       53.9       1.000     
   1   102   1U    0     5     5  53.9       53.9       1.000     
   1   102   2     0     4     4  54.1       54.1       0.2500    
   1   103   1     0     2     2  54.5       54.5       0.3750    
   1   104   1     0     2     2  55.1       55.1       0.5625    
   1   105   1     0     1     1  55.9       55.9       0.8438    
   1   106   1     0     3     3  56.9       56.9       1.000     
   1   107   1     0     4     4  57.9       57.9       1.000     
   1   108   1U    0     5     5  57.9       57.9       1.000     
   1   108   2     0     4     4  58.2       58.2       0.2500    
   1   109   1     0     1     1  58.5       58.5       0.3750    
   1   110   1U    0     4     4  58.5       58.5       0.7500    
   1   110   2     0     1     1  58.7       58.7       0.1875    
   1   111   1U    0     4     4  58.7       58.7       0.3750    
   1   111   2     0     1     1  58.8       58.8       0.09375   
   1   112   1     0     2     2  59.0       59.0       0.1875    
   1   113   1     0     2     2  59.3       59.3       0.2812    
   1   114   1     0     2     2  59.7       59.7       0.4219    
   1   115   1     0     4     4  60.3       60.3       0.6328    
   1   116   1     0     5     5  61.3       61.3       0.9492    
   1   117   1U    0     4     4  61.3       61.3       0.9492    
   1   117   2     0     3     3  61.5       61.5       0.2373    
   1   118   1     0     2     2  61.8       61.8       0.2373    
   1   119   1     0     1     1  62.1       62.1       0.3560    
   1   120   1     0     1     1  62.8       62.8       0.7119    
   1   121   1     0     3     3  63.8       63.8       1.000     
   1   122   1     0     5     5  64.8       64.8       1.000     
   1   123   1     0     5     5  65.8       65.8       1.000     
   1   124   1     0     3     3  66.8       66.8       1.000     
   1   125   1     0     4     4  67.8       67.8       1.000     
   1   126   1U    0     5     5  67.8       67.8       1.000     
   1   126   2     0     4     4  68.1       68.1       0.2500    
   1   127   1     0     3     3  68.5       68.5       0.3750    
   1   128   1     0     2     2  69.0       69.0       0.5625    
   1   129   1     0     1     1  69.9       69.9       0.8438    
   1   130   1     0     3     3  70.9       70.9       1.000     
   1   131   1     0     5     5  71.9       71.9       1.000     
   1   132   1     0     4     4  72.9       72.9       1.000     
   1   133   1     0     3     3  73.9       73.9       1.000     
   1   134   1     0     3     3  74.9       74.9       1.000     
   1   135   1U    0     4     4  74.9       74.9       1.000     
   1   135   2     0     5     5  75.1       75.1       0.2500    
   1   136   1     0     1     1  75.4       75.4       0.2500    
   1   137   1     0     2     2  75.6       75.6       0.2500    
   1   138   1     0     2     2  76.0       76.0       0.3750    
   1   139   1     0     1     1  76.6       76.6       0.5625    
   1   140   1     0     3     3  77.6       77.6       1.000     
   1   141   1     0     4     4  78.6       78.6       1.000     
   1   142   1     0     5     5  79.6       79.6       1.000     
   1   143   1U    0     8     8  79.6       79.6       1.000     
   1   143   2     0     4     4  79.8       79.8       0.2500    
   1   144   1U    0     4     4  79.8       79.8       0.2500    
   1   144   2     0     3     3  79.9       79.9       0.06250   
   1   145   1     0     2     2  80.0       80.0       0.09375   
   1   146   1     0     1     1  80.1       80.1       0.1406    
   1   147   1     0     1     1  80.4       80.4       0.2812    
   1   148   1     0     3     3  80.9       80.9       0.5625    
   1   149   1     0     3     3  81.8       81.8       0.8438    
   1   150   1U    0     4     4  81.8       81.8       1.000     
   1   150   2     0     4     4  82.0       82.0       0.2500    
   1   151   1     0     1     1  82.4       82.4       0.3750    
   1   152   1U    0     5     5  82.4       82.4       0.7500    
   1   152   2     0     3     3  82.6       82.6       0.1875    
   1   153   1     0     2     2  82.9       82.9       0.2812    
   1   154   1     0     1     1  83.3       83.3       0.4219    
   1   155   1     0     2     2  84.2       84.2       0.8438    
   1   156   1     0     4     4  85.2       85.2       1.000     
   1   157   1     0     6     6  86.2       86.2       1.000     
   1   158   1U    0     4     4  86.2       86.2       1.000     
   1   158   2     0     5     5  86.4       86.4       0.2500    
   1   159   1     0     2     2  86.7       86.7       0.2500    
   1   160   1     0     3     3  86.9       86.9       0.2500    
   1   161   1     0     3     3  87.3       87.3       0.3750    
   1   162   1     0     2     2  87.8       87.8       0.5625    
   1   163   1     0     3     3  88.7       88.7       0.8438    
   1   164   1U    0     4     4  88.7       88.7       1.000     
   1   164   2     0     4     4  88.9       88.9       0.2500    
   1   165   1     0     1     1  89.3       89.3       0.3750    
   1   166   1     0     3     3  90.1       90.1       0.7500    
   1   167   1     0     2     2  91.1       91.1       1.000     
   1   168   1     0     4     4  92.1       92.1       1.000     
   1   169   1     0     4     4  93.1       93.1       1.000     
   1   170   1U    0     4     4  93.1       93.1       1.000     
   1   170   2     0     4     4  93.3       93.3       0.2500    
   1   171   1     0     2     2  93.7       93.7       0.3750    
   1   172   1U    0     4     4  93.7       93.7       0.5625    
   1   172   2     0     1     1  93.8       93.8       0.1406    
   1   173   1     0     3     3  94.1       94.1       0.2812    
   1   174   1     0     2     2  94.5       94.5       0.4219    
   1   175   1     0     4     4  95.2       95.2       0.6328    
   1   176   1     0     4     4  96.1       96.1       0.9492    
   1   177   1U    0     6     6  96.1       96.1       1.000     
   1   177   2     0     4     4  96.4       96.4       0.2500    
   1   178   1     0     4     4  96.7       96.7       0.3750    
   1   179   1     0     3     3  97.3       97.3       0.5625    
   1   180   1     0     3     3  98.1       98.1       0.8438    
   1   181   1     0     3     3  99.1       99.1       1.000     
   1   182   1     0     4     4  100.       100.       1.000     
   1   183   1U    0     4     4  100.       100.       1.000     
   1   183   2     0     7     7  100.       100.       0.2500    
   1   184   1     0     1     1  101.       101.       0.2500    
   1   185   1     0     3     3  101.       101.       0.2500    
   1   186   1     0     4     4  101.       101.       0.3750    
   1   187   1     0     3     3  102.       102.       0.5625    
                          
 THE ANALYSIS HAS NOT BEEN COMPLETED
