*Heading
 Thermal and mechanical analysis
** Job name: ThermalAnalysis Model name: Model-1
** Generated by: Abaqus/CAE Learning Edition 2024
*Preprint, echo=NO, model=NO, history=NO, contact=NO
**
** PARTS
**
*Part, name=Cu
*Node
      1,   11.3262377,           0.,   8.22899342
      2,   4.32623816,           0.,   13.3147917
      3,  -4.32623816,           0.,   13.3147917
      4,  -11.3262377,           0.,   8.22899342
      5,         -14.,           0.,           0.
      6,  -11.3262377,           0.,  -8.22899342
      7,  -4.32623816,           0.,  -13.3147917
      8,   4.32623816,           0.,  -13.3147917
      9,   11.3262377,           0.,  -8.22899342
     10,          14.,           0.,           0.
     11,   4.21065903,           0.,   3.35046506
     12,  -2.90893698,           0.,   7.00393677
     13,  -7.70317173,           0.,  0.534921944
     14,   1.90508938,           0.,    7.7791338
     15,  -7.42319775,           0.,   5.34165239
     16,  -6.90280819,           0.,  -4.29179668
     17,  -1.96856618,           0.,  -5.09264898
     18,   4.99629402,           0.,  -3.64216495
     19,  -2.00415492,           0.,   1.38351893
     20,   10.7968044,    10.002862,   8.31067371
** ... 189 like lines cut
*Element, type=C3D8T
  1,  12,   3,   2,  14,  31,  22,  21,  33
  2,  11,  14,   2,   1,  30,  33,  21,  20
  3,  19,  12,  14,  11,  38,  31,  33,  30
  4,  12,  19,  13,  15,  31,  38,  32,  34
  5,  17,  16,  13,  19,  36,  35,  32,  38
  6,  13,   5,   4,  15,  32,  24,  23,  34
  7,  18,  11,   1,  10,  37,  30,  20,  29
  8,   4,   3,  12,  15,  23,  22,  31,  34
  9,  17,   7,   6,  16,  36,  26,  25,  35
 10,   5,  13,  16,   6,  24,  32,  35,  25
 11,  18,  17,  19,  11,  37,  36,  38,  30
 12,  18,   8,   7,  17,  37,  27,  26,  36
 13,  10,   9,   8,  18,  29,  28,  27,  37
 14,  31,  22,  21,  33,  50,  41,  40,  52
 15,  30,  33,  21,  20,  49,  52,  40,  39
 16,  38,  31,  33,  30,  57,  50,  52,  49
 17,  31,  38,  32,  34,  50,  57,  51,  53
 18,  36,  35,  32,  38,  55,  54,  51,  57
 19,  32,  24,  23,  34,  51,  43,  42,  53
 20,  37,  30,  20,  29,  56,  49,  39,  48
** ... 110 like lines cut
*Nset, nset=Cuvolume, generate
   1,  209,    1
*Elset, elset=Cuvolume, generate
   1,  130,    1
*Nset, nset=_G4, internal, generate
   1,  209,    1
*Elset, elset=_G4, internal, generate
   1,  130,    1
*Elset, elset=_ContactSurfCu_S4, internal
   1,   6,   9,  12,  13,  14,  19,  22,  25,  26,  27,  32,  35,  38,  39,  40
  45,  48,  51,  52,  53,  58,  61,  64,  65,  66,  71,  74,  77,  78,  79,  84
  87,  90,  91,  92,  97, 100, 103, 104, 105, 110, 113, 116, 117, 118, 123, 126
 129, 130
*Elset, elset=_ContactSurfCu_S5, internal
   2,   7,  15,  20,  28,  33,  41,  46,  54,  59,  67,  72,  80,  85,  93,  98
 106, 111, 119, 124
*Elset, elset=_ContactSurfCu_S3, internal
   8,  13,  21,  26,  34,  39,  47,  52,  60,  65,  73,  78,  86,  91,  99, 104
 112, 117, 125, 130
*Elset, elset=_ContactSurfCu_S6, internal, generate
  10,  127,   13
*Surface, type=ELEMENT, name=ContactSurfCu
_ContactSurfCu_S4, S4
_ContactSurfCu_S5, S5
_ContactSurfCu_S6, S6
_ContactSurfCu_S3, S3
** Section: Via
*Solid Section, elset=_G4, material=Cu
,
*End Part
**  
*Part, name=Si
*Node
      1,   14.7224321,         100.,          8.5
      2,          8.5,         100.,   14.7224321
      3,           0.,         100.,          17.
      4,         -8.5,         100.,   14.7224321
      5,  -14.7224321,         100.,          8.5
      6,         -17.,         100.,           0.
      7,  -14.7224321,         100.,         -8.5
      8,         -8.5,         100.,  -14.7224321
      9,           0.,         100.,         -17.
     10,          8.5,         100.,  -14.7224321
     11,   14.7224321,         100.,         -8.5
     12,          17.,         100.,           0.
     13,        -100.,         100.,         100.
     14,         100.,         100.,         100.
     15,         100.,         100.,        -100.
     16,        -100.,         100.,        -100.
     17,         -50.,         100.,         100.
     18,           0.,         100.,         100.
     19,          50.,         100.,         100.
     20,         100.,         100.,         -50.
** ... 717 like lines cut
*Element, type=C3D8T
  1,  45,   2,   1,  35, 112,  69,  68, 102
  2,  61,   4,   3,  38, 128,  71,  70, 105
  3,  52,  30,   4,  61, 119,  97,  71, 128
  4,  62,  37,  31,  40, 129, 104,  98, 107
  5,  51,  37,  53,  63, 118, 104, 120, 130
  6,  51,  39,  31,  37, 118, 106,  98, 104
  7,  42,  43,  58,  50, 109, 110, 125, 117
  8,  47,  41,  50,  65, 114, 108, 117, 132
  9,  32,  42,  50,  41,  99, 109, 117, 108
 10,  11,  34,  29,  12,  78, 101,  96,  79
 11,  41,  34,  11,  32, 108, 101,  78,  99
 12,  43,  42,  10,   9, 110, 109,  77,  76
 13,  14,  19,  55,  22,  81,  86, 122,  89
 14,  54,  25,  15,  20, 121,  92,  82,  87
 15,  47,  36,  34,  41, 114, 103, 101, 108
 16,  56,  26,  16,  23, 123,  93,  83,  90
 17,   7,   6,  31,  39,  74,  73,  98, 106
 18,   4,  30,  40,   5,  71,  97, 107,  72
 19,  13,  28,  57,  17,  80,  95, 124,  84
 20,  35,   1,  12,  29, 102,  68,  79,  96
** ... 510 like lines cut
*Nset, nset=Sivolume, generate
   1,  737,    1
*Elset, elset=Sivolume, generate
   1,  530,    1
*Nset, nset=SiLateralSurf
  13,  14,  15,  16,  17,  18,  19,  20,  21,  22,  23,  24,  25,  26,  27,  28
  80,  81,  82,  83,  84,  85,  86,  87,  88,  89,  90,  91,  92,  93,  94,  95
 147, 148, 149, 150, 151, 152, 153, 154, 155, 156, 157, 158, 159, 160, 161, 162
 214, 215, 216, 217, 218, 219, 220, 221, 222, 223, 224, 225, 226, 227, 228, 229
 281, 282, 283, 284, 285, 286, 287, 288, 289, 290, 291, 292, 293, 294, 295, 296
 348, 349, 350, 351, 352, 353, 354, 355, 356, 357, 358, 359, 360, 361, 362, 363
 415, 416, 417, 418, 419, 420, 421, 422, 423, 424, 425, 426, 427, 428, 429, 430
 482, 483, 484, 485, 486, 487, 488, 489, 490, 491, 492, 493, 494, 495, 496, 497
 549, 550, 551, 552, 553, 554, 555, 556, 557, 558, 559, 560, 561, 562, 563, 564
 616, 617, 618, 619, 620, 621, 622, 623, 624, 625, 626, 627, 628, 629, 630, 631
 683, 684, 685, 686, 687, 688, 689, 690, 691, 692, 693, 694, 695, 696, 697, 698
*Elset, elset=SiLateralSurf
  13,  14,  16,  19,  22,  31,  32,  37,  38,  40,  41,  43,  66,  67,  69,  72
  75,  84,  85,  90,  91,  93,  94,  96, 119, 120, 122, 125, 128, 137, 138, 143
 144, 146, 147, 149, 172, 173, 175, 178, 181, 190, 191, 196, 197, 199, 200, 202
 225, 226, 228, 231, 234, 243, 244, 249, 250, 252, 253, 255, 278, 279, 281, 284
 287, 296, 297, 302, 303, 305, 306, 308, 331, 332, 334, 337, 340, 349, 350, 355
 356, 358, 359, 361, 384, 385, 387, 390, 393, 402, 403, 408, 409, 411, 412, 414
 437, 438, 440, 443, 446, 455, 456, 461, 462, 464, 465, 467, 490, 491, 493, 496
 499, 508, 509, 514, 515, 517, 518, 520
*Nset, nset=_G5, internal, generate
   1,  737,    1
*Elset, elset=_G5, internal, generate
   1,  530,    1
*Elset, elset=_ContactSurfSi_S4, internal
   1,   2,  20,  26,  54,  55,  73,  79, 107, 108, 126, 132, 160, 161, 179, 185
 213, 214, 232, 238, 266, 267, 285, 291, 319, 320, 338, 344, 372, 373, 391, 397
 425, 426, 444, 450, 478, 479, 497, 503
*Elset, elset=_ContactSurfSi_S6, internal
  10,  18,  63,  71, 116, 124, 169, 177, 222, 230, 275, 283, 328, 336, 381, 389
 434, 442, 487, 495
*Elset, elset=_ContactSurfSi_S5, internal
  12,  21,  23,  25,  65,  74,  76,  78, 118, 127, 129, 131, 171, 180, 182, 184
 224, 233, 235, 237, 277, 286, 288, 290, 330, 339, 341, 343, 383, 392, 394, 396
 436, 445, 447, 449, 489, 498, 500, 502
*Elset, elset=_ContactSurfSi_S3, internal
  17,  27,  70,  80, 123, 133, 176, 186, 229, 239, 282, 292, 335, 345, 388, 398
 441, 451, 494, 504
*Surface, type=ELEMENT, name=ContactSurfSi
_ContactSurfSi_S4, S4
_ContactSurfSi_S6, S6
_ContactSurfSi_S5, S5
_ContactSurfSi_S3, S3
** Section: wafer
*Solid Section, elset=_G5, material=Si
,
*End Part
**  
**
** ASSEMBLY
**
*Assembly, name=Assembly
**  
*Instance, name=Cu, part=Cu
*End Instance
**  
*Instance, name=Si, part=Si
*End Instance
**  
** Constraint: CuSiTie
*Tie, name=CuSiTie, adjust=yes
Si.ContactSurfSi, Cu.ContactSurfCu
*End Assembly
*Amplitude, name=ThermalCycle, time=TOTAL TIME
             0.,             25.,           1.833,            300.,           2.833,            300.,           4.433,            -65.
          5.433,            -65.,              7.,             25.,           8.833,            300.,           9.833,            300.
         11.433,            -65.,          12.433,            -65.,             14.,             25.,          15.833,            300.
         16.833,            300.,          18.433,            -65.,          19.433,            -65.,             21.,             25.
         22.833,            300.,          23.833,            300.,          25.433,            -65.,          26.433,            -65.
            28.,             25.,          29.833,            300.,          30.833,            300.,          32.433,            -65.
         33.433,            -65.,             35.,             25.,          36.833,            300.,          37.833,            300.
         39.433,            -65.,          40.433,            -65.,             42.,             25.,          43.833,            300.
         44.833,            300.,          46.433,            -65.,          47.433,            -65.,             49.,             25.
         50.833,            300.,          51.833,            300.,          53.433,            -65.,          54.433,            -65.
            56.,             25.,          57.833,            300.,          58.833,            300.,          60.433,            -65.
         61.433,            -65.,             63.,             25.,          64.833,            300.,          65.833,            300.
         67.433,            -65.,          68.433,            -65.,             70.,             25.,          71.833,            300.
         72.833,            300.,          74.433,            -65.,          75.433,            -65.,             77.,             25.
         78.833,            300.,          79.833,            300.,          81.433,            -65.,          82.433,            -65.
            84.,             25.,          85.833,            300.,          86.833,            300.,          88.433,            -65.
         89.433,            -65.,             91.,             25.,          92.833,            300.,          93.833,            300.
         95.433,            -65.,          96.433,            -65.,             98.,             25.,          99.833,            300.
        100.833,            300.,         102.433,            -65.,         103.433,            -65.,            105.,             25.
        106.833,            300.,         107.833,            300.,         109.433,            -65.,         110.433,            -65.
** ... 18 like lines cut
** 
** MATERIALS
** 
*Material, name=Cu
*Conductivity
 0.401,
*Damage Initiation, criterion=DUCTILE
 0.15, 0.1,  0.
*Damage Evolution, type=DISPLACEMENT
 0.1,
*Density
 8.96e-12,
*Elastic
120000., 0.34
*Expansion
 1.7e-05,
*Plastic
    140.,         0.
 149.666, 0.00100503
 151.785, 0.00201005
 153.234, 0.00301508
 154.369,  0.0040201
 155.316, 0.00502513
 156.136, 0.00603015
 156.863, 0.00703518
 157.519,  0.0080402
 158.119, 0.00904523
 158.674,  0.0100503
  159.19,  0.0110553
 159.673,  0.0120603
 160.129,  0.0130653
  160.56,  0.0140704
  160.97,  0.0150754
  161.36,  0.0160804
 161.734,  0.0170854
 162.092,  0.0180905
 162.437,  0.0190955
** ... 180 like lines cut
*Specific Heat
 0.00039,
*Material, name=Si
*Conductivity
 0.149,
*Density
 2.33e-12,
*Elastic
130000., 0.28
*Expansion
 2.8e-06,
*Specific Heat
 0.0007,
** 
** BOUNDARY CONDITIONS
** 
** Name: FixedSiLateral Type: Displacement/Rotation
*Boundary, fixed
Si.SiLateralSurf, 1, 1
Si.SiLateralSurf, 2, 2
Si.SiLateralSurf, 3, 3
** ----------------------------------------------------------------
** 
** STEP: TCTCondition
** 
*Step, name=TCTCondition, nlgeom=NO, inc=100000
*Coupled Temperature-displacement, creep=none, deltmx=1.
0.1, 210., 1e-05, 1.
** 
** BOUNDARY CONDITIONS
** 
** Name: CuTempBC Type: Temperature
*Boundary, amplitude=ThermalCycle
Cu.Cuvolume, 11, 11, 1.
** Name: SiTempBC Type: Temperature
*Boundary, amplitude=ThermalCycle
Si.Sivolume, 11, 11, 1.
** 
** OUTPUT REQUESTS
** 
*Restart, write, frequency=0
** 
** FIELD OUTPUT: F-Output-1
** 
*Output, field, variable=PRESELECT
** 
** HISTORY OUTPUT: H-Output-1
** 
*Output, history, variable=PRESELECT
*End Step
