 Abaqus/Standard Learning Edition 2024                  DATE 12-May-2025 TIME 17:14:46
 SUMMARY OF JOB INFORMATION:
 STEP  INC ATT SEVERE EQUIL TOTAL  TOTAL      STEP       INC OF       DOF    IF
               DISCON ITERS ITERS  TIME/    TIME/LPF    TIME/LPF    MONITOR RIKS
               ITERS               FREQ
   1     1   1     0     1     1  0.100      0.100      0.1000    
   1     2   1     0     1     1  0.200      0.200      0.1000    
   1     3   1     0     1     1  0.300      0.300      0.1000    
   1     4   1     0     1     1  0.500      0.500      0.2000    
   1     5   1     0     1     1  0.900      0.900      0.4000    
   1     6   1     0     1     1  1.70       1.70       0.8000    
   1     7   1     0     1     1  2.70       2.70       1.000     
   1     8   1     0     2     2  3.70       3.70       1.000     
   1     9   1     0     2     2  4.70       4.70       1.000     
   1    10   1     0     2     2  5.70       5.70       1.000     
   1    11   1     0     2     2  6.70       6.70       1.000     
   1    12   1     0     2     2  7.70       7.70       1.000     
   1    13   1     0     2     2  8.70       8.70       1.000     
   1    14   1     0     2     2  9.70       9.70       1.000     
   1    15   1     0     2     2  10.7       10.7       1.000     
   1    16   1     0     1     1  11.7       11.7       1.000     
   1    17   1     0     1     1  12.7       12.7       1.000     
   1    18   1     0     1     1  13.7       13.7       1.000     
   1    19   1     0     1     1  14.7       14.7       1.000     
   1    20   1     0     1     1  15.7       15.7       1.000     
   1    21   1     0     1     1  16.7       16.7       1.000     
   1    22   1     0     1     1  17.7       17.7       1.000     
   1    23   1     0     2     2  18.7       18.7       1.000     
   1    24   1     0     2     2  19.7       19.7       1.000     
   1    25   1     0     1     1  20.7       20.7       1.000     
   1    26   1     0     1     1  21.7       21.7       1.000     
   1    27   1     0     1     1  22.7       22.7       1.000     
   1    28   1     0     1     1  23.7       23.7       1.000     
   1    29   1     0     1     1  24.7       24.7       1.000     
   1    30   1     0     1     1  25.7       25.7       1.000     
   1    31   1     0     1     1  26.7       26.7       1.000     
   1    32   1     0     1     1  27.7       27.7       1.000     
   1    33   1     0     3     3  28.7       28.7       1.000     
   1    34   1     0     2     2  29.7       29.7       1.000     
   1    35   1     0     1     1  30.7       30.7       1.000     
   1    36   1     0     1     1  31.7       31.7       1.000     
   1    37   1     0     1     1  32.7       32.7       1.000     
   1    38   1     0     1     1  33.7       33.7       1.000     
   1    39   1     0     1     1  34.7       34.7       1.000     
   1    40   1     0     1     1  35.7       35.7       1.000     
   1    41   1     0     1     1  36.7       36.7       1.000     
   1    42   1     0     2     2  37.7       37.7       1.000     
   1    43   1     0     2     2  38.7       38.7       1.000     
   1    44   1     0     2     2  39.7       39.7       1.000     
   1    45   1     0     2     2  40.7       40.7       1.000     
   1    46   1     0     2     2  41.7       41.7       1.000     
   1    47   1     0     2     2  42.7       42.7       1.000     
   1    48   1     0     2     2  43.7       43.7       1.000     
   1    49   1     0     2     2  44.7       44.7       1.000     
   1    50   1     0     5     5  45.7       45.7       1.000     
   1    51   1     0     1     1  46.7       46.7       1.000     
   1    52   1     0     1     1  47.7       47.7       1.000     
   1    53   1     0     1     1  48.7       48.7       1.000     
   1    54   1     0     1     1  49.7       49.7       1.000     
   1    55   1     0     1     1  50.7       50.7       1.000     
   1    56   1     0     1     1  51.7       51.7       1.000     
   1    57   1     0     1     1  52.7       52.7       1.000     
   1    58   1     0     1     1  53.7       53.7       1.000     
   1    59   1     0     2     2  54.7       54.7       1.000     
   1    60   1     0     1     1  55.7       55.7       1.000     
   1    61   1     0     1     1  56.7       56.7       1.000     
   1    62   1     0     1     1  57.7       57.7       1.000     
   1    63   1     0     1     1  58.7       58.7       1.000     
   1    64   1     0     1     1  59.7       59.7       1.000     
   1    65   1     0     1     1  60.7       60.7       1.000     
   1    66   1     0     1     1  61.7       61.7       1.000     
   1    67   1     0     1     1  62.7       62.7       1.000     
   1    68   1     0     1     1  63.7       63.7       1.000     
   1    69   1     0     1     1  64.7       64.7       1.000     
   1    70   1     0     1     1  65.7       65.7       1.000     
   1    71   1     0     1     1  66.7       66.7       1.000     
   1    72   1     0     1     1  67.7       67.7       1.000     
   1    73   1     0     1     1  68.7       68.7       1.000     
   1    74   1     0     1     1  69.7       69.7       1.000     
   1    75   1     0     1     1  70.7       70.7       1.000     
   1    76   1     0     1     1  71.7       71.7       1.000     
   1    77   1     0     1     1  72.7       72.7       1.000     
   1    78   1     0     1     1  73.7       73.7       1.000     
   1    79   1     0     1     1  74.7       74.7       1.000     
   1    80   1     0     1     1  75.7       75.7       1.000     
   1    81   1     0     2     2  76.7       76.7       1.000     
   1    82   1     0     2     2  77.7       77.7       1.000     
   1    83   1     0     2     2  78.7       78.7       1.000     
   1    84   1     0     2     2  79.7       79.7       1.000     
   1    85   1     0     2     2  80.7       80.7       1.000     
   1    86   1     0     2     2  81.7       81.7       1.000     
   1    87   1     0     2     2  82.7       82.7       1.000     
   1    88   1     0     2     2  83.7       83.7       1.000     
   1    89   1     0     2     2  84.7       84.7       1.000     
   1    90   1     0     2     2  85.7       85.7       1.000     
   1    91   1     0     2     2  86.7       86.7       1.000     
   1    92   1     0     2     2  87.7       87.7       1.000     
   1    93   1     0     2     2  88.7       88.7       1.000     
   1    94   1     0     5     5  89.7       89.7       1.000     
   1    95   1     0     1     1  90.7       90.7       1.000     
   1    96   1     0     1     1  91.7       91.7       1.000     
   1    97   1     0     1     1  92.7       92.7       1.000     
   1    98   1     0     1     1  93.7       93.7       1.000     
   1    99   1     0     1     1  94.7       94.7       1.000     
   1   100   1     0     1     1  95.7       95.7       1.000     
   1   101   1     0     1     1  96.7       96.7       1.000     
   1   102   1     0     1     1  97.7       97.7       1.000     
   1   103   1     0     3     3  98.7       98.7       1.000     
   1   104   1     0     1     1  99.7       99.7       1.000     
   1   105   1     0     1     1  101.       101.       1.000     
   1   106   1     0     1     1  102.       102.       1.000     
   1   107   1     0     1     1  103.       103.       1.000     
   1   108   1     0     1     1  104.       104.       1.000     
   1   109   1     0     1     1  105.       105.       1.000     
   1   110   1     0     1     1  106.       106.       1.000     
   1   111   1     0     1     1  107.       107.       1.000     
   1   112   1     0     2     2  108.       108.       1.000     
   1   113   1     0     2     2  109.       109.       1.000     
   1   114   1     0     2     2  110.       110.       1.000     
   1   115   1     0     2     2  111.       111.       1.000     
   1   116   1     0     2     2  112.       112.       1.000     
   1   117   1     0     2     2  113.       113.       1.000     
   1   118   1     0     2     2  114.       114.       1.000     
   1   119   1     0     2     2  115.       115.       1.000     
   1   120   1     0     6     6  116.       116.       1.000     
   1   121   1     0     1     1  117.       117.       1.000     
   1   122   1     0     1     1  118.       118.       1.000     
   1   123   1     0     1     1  119.       119.       1.000     
   1   124   1     0     1     1  120.       120.       1.000     
   1   125   1     0     1     1  121.       121.       1.000     
   1   126   1     0     1     1  122.       122.       1.000     
   1   127   1     0     1     1  123.       123.       1.000     
   1   128   1     0     1     1  124.       124.       1.000     
   1   129   1     0     2     2  125.       125.       1.000     
   1   130   1     0     1     1  126.       126.       1.000     
   1   131   1     0     1     1  127.       127.       1.000     
   1   132   1     0     1     1  128.       128.       1.000     
   1   133   1     0     1     1  129.       129.       1.000     
   1   134   1     0     1     1  130.       130.       1.000     
   1   135   1     0     1     1  131.       131.       1.000     
   1   136   1     0     1     1  132.       132.       1.000     
   1   137   1     0     1     1  133.       133.       1.000     
   1   138   1     0     1     1  134.       134.       1.000     
   1   139   1     0     1     1  135.       135.       1.000     
   1   140   1     0     1     1  136.       136.       1.000     
   1   141   1     0     1     1  137.       137.       1.000     
   1   142   1     0     1     1  138.       138.       1.000     
   1   143   1     0     1     1  139.       139.       1.000     
   1   144   1     0     1     1  140.       140.       1.000     
   1   145   1     0     1     1  141.       141.       1.000     
   1   146   1     0     1     1  142.       142.       1.000     
   1   147   1     0     1     1  143.       143.       1.000     
   1   148   1     0     1     1  144.       144.       1.000     
   1   149   1     0     1     1  145.       145.       1.000     
   1   150   1     0     1     1  146.       146.       1.000     
   1   151   1     0     2     2  147.       147.       1.000     
   1   152   1     0     2     2  148.       148.       1.000     
   1   153   1     0     2     2  149.       149.       1.000     
   1   154   1     0     2     2  150.       150.       1.000     
   1   155   1     0     2     2  151.       151.       1.000     
   1   156   1     0     2     2  152.       152.       1.000     
   1   157   1     0     2     2  153.       153.       1.000     
   1   158   1     0     2     2  154.       154.       1.000     
   1   159   1     0     2     2  155.       155.       1.000     
   1   160   1     0     2     2  156.       156.       1.000     
   1   161   1     0     2     2  157.       157.       1.000     
   1   162   1     0     2     2  158.       158.       1.000     
   1   163   1     0     2     2  159.       159.       1.000     
   1   164   1     0     5     5  160.       160.       1.000     
   1   165   1     0     1     1  161.       161.       1.000     
   1   166   1     0     1     1  162.       162.       1.000     
   1   167   1     0     1     1  163.       163.       1.000     
   1   168   1     0     1     1  164.       164.       1.000     
   1   169   1     0     1     1  165.       165.       1.000     
   1   170   1     0     1     1  166.       166.       1.000     
   1   171   1     0     1     1  167.       167.       1.000     
   1   172   1     0     1     1  168.       168.       1.000     
   1   173   1     0     2     2  169.       169.       1.000     
   1   174   1     0     1     1  170.       170.       1.000     
   1   175   1     0     1     1  171.       171.       1.000     
   1   176   1     0     1     1  172.       172.       1.000     
   1   177   1     0     1     1  173.       173.       1.000     
   1   178   1     0     1     1  174.       174.       1.000     
   1   179   1     0     1     1  175.       175.       1.000     
   1   180   1     0     1     1  176.       176.       1.000     
   1   181   1     0     1     1  177.       177.       1.000     
   1   182   1     0     2     2  178.       178.       1.000     
   1   183   1     0     2     2  179.       179.       1.000     
   1   184   1     0     2     2  180.       180.       1.000     
   1   185   1     0     2     2  181.       181.       1.000     
   1   186   1     0     2     2  182.       182.       1.000     
   1   187   1     0     2     2  183.       183.       1.000     
   1   188   1     0     2     2  184.       184.       1.000     
   1   189   1     0     2     2  185.       185.       1.000     
   1   190   1     0     6     6  186.       186.       1.000     
   1   191   1     0     1     1  187.       187.       1.000     
   1   192   1     0     1     1  188.       188.       1.000     
   1   193   1     0     1     1  189.       189.       1.000     
   1   194   1     0     1     1  190.       190.       1.000     
   1   195   1     0     1     1  191.       191.       1.000     
   1   196   1     0     1     1  192.       192.       1.000     
   1   197   1     0     1     1  193.       193.       1.000     
   1   198   1     0     1     1  194.       194.       1.000     
   1   199   1     0     1     1  195.       195.       1.000     
   1   200   1     0     1     1  196.       196.       1.000     
   1   201   1     0     1     1  197.       197.       1.000     
   1   202   1     0     1     1  198.       198.       1.000     
   1   203   1     0     1     1  199.       199.       1.000     
   1   204   1     0     1     1  200.       200.       1.000     
   1   205   1     0     1     1  201.       201.       1.000     
   1   206   1     0     1     1  202.       202.       1.000     
   1   207   1     0     1     1  203.       203.       1.000     
   1   208   1     0     1     1  204.       204.       1.000     
   1   209   1     0     1     1  205.       205.       1.000     
   1   210   1     0     1     1  206.       206.       1.000     
   1   211   1     0     1     1  207.       207.       1.000     
   1   212   1     0     1     1  208.       208.       1.000     
   1   213   1     0     1     1  209.       209.       1.000     
   1   214   1     0     1     1  210.       210.       1.000     
   1   215   1     0     1     1  211.       211.       1.000     
   1   216   1     0     1     1  212.       212.       1.000     
   1   217   1     0     1     1  213.       213.       1.000     
   1   218   1     0     1     1  214.       214.       1.000     
   1   219   1     0     1     1  215.       215.       1.000     
   1   220   1     0     1     1  216.       216.       1.000     
   1   221   1     0     1     1  217.       217.       1.000     
   1   222   1     0     1     1  218.       218.       1.000     
   1   223   1     0     2     2  219.       219.       1.000     
   1   224   1     0     2     2  220.       220.       1.000     
   1   225   1     0     2     2  221.       221.       1.000     
   1   226   1     0     1     1  222.       222.       1.000     
   1   227   1     0     2     2  223.       223.       1.000     
   1   228   1     0     2     2  224.       224.       1.000     
   1   229   1     0     2     2  225.       225.       1.000     
   1   230   1     0     2     2  226.       226.       1.000     
   1   231   1     0     2     2  227.       227.       1.000     
   1   232   1     0     2     2  228.       228.       1.000     
   1   233   1     0     2     2  229.       229.       1.000     
   1   234   1     0     5     5  230.       230.       1.000     
   1   235   1     0     1     1  231.       231.       1.000     
   1   236   1     0     1     1  232.       232.       1.000     
   1   237   1     0     1     1  233.       233.       1.000     
   1   238   1     0     1     1  234.       234.       1.000     
   1   239   1     0     1     1  235.       235.       1.000     
   1   240   1     0     1     1  236.       236.       1.000     
   1   241   1     0     1     1  237.       237.       1.000     
   1   242   1     0     1     1  238.       238.       1.000     
   1   243   1     0     1     1  239.       239.       1.000     
   1   244   1     0     1     1  240.       240.       1.000     
   1   245   1     0     1     1  241.       241.       1.000     
   1   246   1     0     1     1  242.       242.       1.000     
   1   247   1     0     1     1  243.       243.       1.000     
   1   248   1     0     1     1  244.       244.       1.000     
   1   249   1     0     1     1  245.       245.       1.000     
   1   250   1     0     1     1  246.       246.       1.000     
   1   251   1     0     1     1  247.       247.       1.000     
   1   252   1     0     2     2  248.       248.       1.000     
   1   253   1     0     2     2  249.       249.       1.000     
   1   254   1     0     2     2  250.       250.       1.000     
   1   255   1     0     2     2  251.       251.       1.000     
   1   256   1     0     2     2  252.       252.       1.000     
   1   257   1     0     2     2  253.       253.       1.000     
   1   258   1     0     2     2  254.       254.       1.000     
   1   259   1     0     2     2  255.       255.       1.000     
   1   260   1     0     5     5  256.       256.       1.000     
   1   261   1     0     1     1  257.       257.       1.000     
   1   262   1     0     1     1  258.       258.       1.000     
   1   263   1     0     1     1  259.       259.       1.000     
   1   264   1     0     1     1  260.       260.       1.000     
   1   265   1     0     1     1  261.       261.       1.000     
   1   266   1     0     1     1  262.       262.       1.000     
   1   267   1     0     1     1  263.       263.       1.000     
   1   268   1     0     1     1  264.       264.       1.000     
   1   269   1     0     2     2  265.       265.       1.000     
   1   270   1     0     1     1  266.       266.       1.000     
   1   271   1     0     1     1  267.       267.       1.000     
   1   272   1     0     1     1  268.       268.       1.000     
   1   273   1     0     1     1  269.       269.       1.000     
   1   274   1     0     1     1  270.       270.       1.000     
   1   275   1     0     1     1  271.       271.       1.000     
   1   276   1     0     1     1  272.       272.       1.000     
   1   277   1     0     1     1  273.       273.       1.000     
   1   278   1     0     1     1  274.       274.       1.000     
   1   279   1     0     1     1  275.       275.       1.000     
   1   280   1     0     1     1  276.       276.       1.000     
   1   281   1     0     1     1  277.       277.       1.000     
   1   282   1     0     1     1  278.       278.       1.000     
   1   283   1     0     1     1  279.       279.       1.000     
   1   284   1     0     1     1  280.       280.       1.000     
   1   285   1     0     1     1  281.       281.       1.000     
   1   286   1     0     1     1  282.       282.       1.000     
   1   287   1     0     1     1  283.       283.       1.000     
   1   288   1     0     1     1  284.       284.       1.000     
   1   289   1     0     1     1  285.       285.       1.000     
   1   290   1     0     1     1  286.       286.       1.000     
   1   291   1     0     1     1  287.       287.       1.000     
   1   292   1     0     1     1  288.       288.       1.000     
   1   293   1     0     2     2  289.       289.       1.000     
   1   294   1     0     2     2  290.       290.       1.000     
   1   295   1     0     1     1  291.       291.       1.000     
   1   296   1     0     2     2  292.       292.       1.000     
   1   297   1     0     2     2  293.       293.       1.000     
   1   298   1     0     2     2  294.       294.       1.000     
   1   299   1     0     2     2  295.       295.       1.000     
   1   300   1     0     2     2  296.       296.       1.000     
   1   301   1     0     2     2  297.       297.       1.000     
   1   302   1     0     2     2  298.       298.       1.000     
   1   303   1     0     2     2  299.       299.       1.000     
   1   304   1     0     5     5  300.       300.       1.000     
   1   305   1     0     1     1  301.       301.       1.000     
   1   306   1     0     1     1  302.       302.       1.000     
   1   307   1     0     1     1  303.       303.       1.000     
   1   308   1     0     1     1  304.       304.       1.000     
   1   309   1     0     1     1  305.       305.       1.000     
   1   310   1     0     1     1  306.       306.       1.000     
   1   311   1     0     1     1  307.       307.       1.000     
   1   312   1     0     1     1  308.       308.       1.000     
   1   313   1     0     2     2  309.       309.       1.000     
   1   314   1     0     2     2  310.       310.       1.000     
   1   315   1     0     1     1  311.       311.       1.000     
   1   316   1     0     1     1  312.       312.       1.000     
   1   317   1     0     1     1  313.       313.       1.000     
   1   318   1     0     1     1  314.       314.       1.000     
   1   319   1     0     1     1  315.       315.       1.000     
   1   320   1     0     1     1  316.       316.       1.000     
   1   321   1     0     1     1  317.       317.       1.000     
   1   322   1     0     2     2  318.       318.       1.000     
   1   323   1     0     2     2  319.       319.       1.000     
   1   324   1     0     2     2  320.       320.       1.000     
   1   325   1     0     3     3  321.       321.       1.000     
   1   326   1     0     3     3  322.       322.       1.000     
   1   327   1     0     4     4  323.       323.       1.000     
   1   328   1     0     3     3  324.       324.       1.000     
   1   329   1     0     3     3  325.       325.       1.000     
   1   330   1     0     5     5  326.       326.       1.000     
   1   331   1     0     1     1  327.       327.       1.000     
   1   332   1     0     1     1  328.       328.       1.000     
   1   333   1     0     1     1  329.       329.       1.000     
   1   334   1     0     1     1  330.       330.       1.000     
   1   335   1     0     1     1  331.       331.       1.000     
   1   336   1     0     1     1  332.       332.       1.000     
   1   337   1     0     1     1  333.       333.       1.000     
   1   338   1     0     1     1  334.       334.       1.000     
   1   339   1     0     2     2  335.       335.       1.000     
   1   340   1     0     2     2  336.       336.       1.000     
   1   341   1     0     1     1  337.       337.       1.000     
   1   342   1     0     1     1  338.       338.       1.000     
   1   343   1     0     1     1  339.       339.       1.000     
   1   344   1     0     1     1  340.       340.       1.000     
   1   345   1     0     1     1  341.       341.       1.000     
   1   346   1     0     1     1  342.       342.       1.000     
   1   347   1     0     1     1  343.       343.       1.000     
   1   348   1     0     1     1  344.       344.       1.000     
   1   349   1     0     1     1  345.       345.       1.000     
   1   350   1     0     1     1  346.       346.       1.000     
   1   351   1     0     1     1  347.       347.       1.000     
   1   352   1     0     1     1  348.       348.       1.000     
   1   353   1     0     1     1  349.       349.       1.000     
   1   354   1     0     1     1  350.       350.       1.000     
   1   355   1     0     2     2  351.       351.       1.000     
   1   356   1     0     2     2  352.       352.       1.000     
   1   357   1     0     1     1  353.       353.       1.000     
   1   358   1     0     1     1  354.       354.       1.000     
   1   359   1     0     1     1  355.       355.       1.000     
   1   360   1     0     1     1  356.       356.       1.000     
   1   361   1     0     2     2  357.       357.       1.000     
   1   362   1     0     2     2  358.       358.       1.000     
   1   363   1     0     2     2  359.       359.       1.000     
   1   364   1     0     2     2  360.       360.       1.000     
   1   365   1     0     2     2  361.       361.       1.000     
   1   366   1     0     2     2  362.       362.       1.000     
   1   367   1     0     2     2  363.       363.       1.000     
   1   368   1     0     2     2  364.       364.       1.000     
   1   369   1     0     3     3  365.       365.       1.000     
   1   370   1     0     3     3  366.       366.       1.000     
   1   371   1     0     3     3  367.       367.       1.000     
   1   372   1     0     3     3  368.       368.       1.000     
   1   373   1     0     2     2  369.       369.       1.000     
   1   374   1     0     6     6  370.       370.       1.000     
   1   375   1     0     5     5  371.       371.       1.000     
   1   376   1     0     1     1  372.       372.       1.000     
   1   377   1     0     1     1  373.       373.       1.000     
   1   378   1     0     1     1  374.       374.       1.000     
   1   379   1     0     1     1  375.       375.       1.000     
   1   380   1     0     1     1  376.       376.       1.000     
   1   381   1     0     1     1  377.       377.       1.000     
   1   382   1     0     1     1  378.       378.       1.000     
   1   383   1     0     3     3  379.       379.       1.000     
   1   384   1     0     3     3  380.       380.       1.000     
   1   385   1     0     1     1  381.       381.       1.000     
   1   386   1     0     1     1  382.       382.       1.000     
   1   387   1     0     1     1  383.       383.       1.000     
   1   388   1     0     1     1  384.       384.       1.000     
   1   389   1     0     1     1  385.       385.       1.000     
   1   390   1     0     2     2  386.       386.       1.000     
   1   391   1     0     2     2  387.       387.       1.000     
   1   392   1     0     2     2  388.       388.       1.000     
   1   393   1     0     3     3  389.       389.       1.000     
   1   394   1     0     3     3  390.       390.       1.000     
   1   395   1     0     3     3  391.       391.       1.000     
   1   396   1     0     6     6  392.       392.       1.000     
   1   397   1     0     4     4  393.       393.       1.000     
   1   398   1     0     4     4  394.       394.       1.000     
   1   399   1     0     4     4  395.       395.       1.000     
   1   400   1     0     7     7  396.       396.       1.000     
   1   401   1     0     4     4  397.       397.       1.000     
   1   402   1     0     1     1  398.       398.       1.000     
   1   403   1     0     1     1  399.       399.       1.000     
   1   404   1     0     1     1  400.       400.       1.000     
   1   405   1     0     1     1  401.       401.       1.000     
   1   406   1     0     1     1  402.       402.       1.000     
   1   407   1     0     1     1  403.       403.       1.000     
   1   408   1     0     1     1  404.       404.       1.000     
   1   409   1     0     2     2  405.       405.       1.000     
   1   410   1     0     2     2  406.       406.       1.000     
   1   411   1     0     1     1  407.       407.       1.000     
   1   412   1     0     1     1  408.       408.       1.000     
   1   413   1     0     1     1  409.       409.       1.000     
   1   414   1     0     1     1  410.       410.       1.000     
   1   415   1     0     1     1  411.       411.       1.000     
   1   416   1     0     1     1  412.       412.       1.000     
   1   417   1     0     1     1  413.       413.       1.000     
   1   418   1     0     1     1  414.       414.       1.000     
   1   419   1     0     1     1  415.       415.       1.000     
   1   420   1     0     1     1  416.       416.       1.000     
   1   421   1     0     1     1  417.       417.       1.000     
   1   422   1     0     1     1  418.       418.       1.000     
   1   423   1     0     1     1  419.       419.       1.000     
   1   424   1     0     1     1  420.       420.       1.000     
   1   425   1     0     3     3  421.       421.       1.000     
   1   426   1     0     2     2  422.       422.       1.000     
   1   427   1     0     1     1  423.       423.       1.000     
   1   428   1     0     1     1  424.       424.       1.000     
   1   429   1     0     1     1  425.       425.       1.000     
   1   430   1     0     2     2  426.       426.       1.000     
   1   431   1     0     2     2  427.       427.       1.000     
   1   432   1     0     2     2  428.       428.       1.000     
   1   433   1     0     2     2  429.       429.       1.000     
   1   434   1     0     2     2  430.       430.       1.000     
   1   435   1     0     2     2  431.       431.       1.000     
   1   436   1     0     2     2  432.       432.       1.000     
   1   437   1     0     2     2  433.       433.       1.000     
   1   438   1     0     2     2  434.       434.       1.000     
   1   439   1     0     3     3  435.       435.       1.000     
   1   440   1     0     3     3  436.       436.       1.000     
   1   441   1     0     3     3  437.       437.       1.000     
   1   442   1     0     2     2  438.       438.       1.000     
   1   443   1     0     3     3  439.       439.       1.000     
   1   444   1     0     6     6  440.       440.       1.000     
   1   445   1     0     3     3  441.       441.       1.000     
   1   446   1     0     1     1  442.       442.       1.000     
   1   447   1     0     1     1  443.       443.       1.000     
   1   448   1     0     1     1  444.       444.       1.000     
   1   449   1     0     1     1  445.       445.       1.000     
   1   450   1     0     1     1  446.       446.       1.000     
   1   451   1     0     1     1  447.       447.       1.000     
   1   452   1     0     1     1  448.       448.       1.000     
   1   453   1     0     4     4  449.       449.       1.000     
   1   454   1     0     2     2  450.       450.       1.000     
   1   455   1     0     1     1  451.       451.       1.000     
   1   456   1     0     1     1  452.       452.       1.000     
   1   457   1     0     1     1  453.       453.       1.000     
   1   458   1     0     1     1  454.       454.       1.000     
   1   459   1     0     1     1  455.       455.       1.000     
   1   460   1     0     2     2  456.       456.       1.000     
   1   461   1     0     2     2  457.       457.       1.000     
   1   462   1     0     2     2  458.       458.       1.000     
   1   463   1     0     2     2  459.       459.       1.000     
   1   464   1     0     3     3  460.       460.       1.000     
   1   465   1     0     4     4  461.       461.       1.000     
   1   466   1     0     3     3  462.       462.       1.000     
   1   467   1     0     3     3  463.       463.       1.000     
   1   468   1     0     4     4  464.       464.       1.000     
   1   469   1     0     4     4  465.       465.       1.000     
   1   470   1     0     7     7  466.       466.       1.000     
   1   471   1     0     5     5  467.       467.       1.000     
   1   472   1     0     1     1  468.       468.       1.000     
   1   473   1     0     1     1  469.       469.       1.000     
   1   474   1     0     1     1  470.       470.       1.000     
   1   475   1     0     1     1  471.       471.       1.000     
   1   476   1     0     1     1  472.       472.       1.000     
   1   477   1     0     1     1  473.       473.       1.000     
   1   478   1     0     1     1  474.       474.       1.000     
   1   479   1     0     3     3  475.       475.       1.000     
   1   480   1     0     3     3  476.       476.       1.000     
   1   481   1     0     1     1  477.       477.       1.000     
   1   482   1     0     1     1  478.       478.       1.000     
   1   483   1     0     1     1  479.       479.       1.000     
   1   484   1     0     1     1  480.       480.       1.000     
   1   485   1     0     1     1  481.       481.       1.000     
   1   486   1     0     1     1  482.       482.       1.000     
   1   487   1     0     1     1  483.       483.       1.000     
   1   488   1     0     1     1  484.       484.       1.000     
   1   489   1     0     1     1  485.       485.       1.000     
   1   490   1     0     1     1  486.       486.       1.000     
   1   491   1     0     1     1  487.       487.       1.000     
   1   492   1     0     1     1  488.       488.       1.000     
   1   493   1     0     1     1  489.       489.       1.000     
   1   494   1     0     1     1  490.       490.       1.000     
   1   495   1     0     3     3  491.       491.       1.000     
   1   496   1     0     3     3  492.       492.       1.000     
   1   497   1     0     1     1  493.       493.       1.000     
   1   498   1     0     1     1  494.       494.       1.000     
   1   499   1     0     2     2  495.       495.       1.000     
   1   500   1     0     2     2  496.       496.       1.000     
   1   501   1     0     2     2  497.       497.       1.000     
   1   502   1     0     2     2  498.       498.       1.000     
   1   503   1     0     2     2  499.       499.       1.000     
   1   504   1     0     2     2  500.       500.       1.000     
   1   505   1     0     2     2  501.       501.       1.000     
   1   506   1     0     2     2  502.       502.       1.000     
   1   507   1     0     3     3  503.       503.       1.000     
   1   508   1     0     2     2  504.       504.       1.000     
   1   509   1     0     2     2  505.       505.       1.000     
   1   510   1     0     2     2  506.       506.       1.000     
   1   511   1     0     2     2  507.       507.       1.000     
   1   512   1     0     2     2  508.       508.       1.000     
   1   513   1     0     4     4  509.       509.       1.000     
   1   514   1     0     7     7  510.       510.       1.000     
   1   515   1     0     6     6  511.       511.       1.000     
   1   516   1     0     1     1  512.       512.       1.000     
   1   517   1     0     1     1  513.       513.       1.000     
   1   518   1     0     1     1  514.       514.       1.000     
   1   519   1     0     1     1  515.       515.       1.000     
   1   520   1     0     1     1  516.       516.       1.000     
   1   521   1     0     1     1  517.       517.       1.000     
   1   522   1     0     1     1  518.       518.       1.000     
   1   523   1     0     3     3  519.       519.       1.000     
   1   524   1     0     3     3  520.       520.       1.000     
   1   525   1     0     1     1  521.       521.       1.000     
   1   526   1     0     1     1  522.       522.       1.000     
   1   527   1     0     1     1  523.       523.       1.000     
   1   528   1     0     2     2  524.       524.       1.000     
   1   529   1     0     2     2  525.       525.       1.000     
   1   530   1     0     2     2  526.       526.       1.000     
   1   531   1     0     2     2  527.       527.       1.000     
   1   532   1     0     2     2  528.       528.       1.000     
   1   533   1     0     3     3  529.       529.       1.000     
   1   534   1     0     3     3  530.       530.       1.000     
   1   535   1U    0     9     9  530.       530.       1.000     
   1   535   2     0     5     5  530.       530.       0.5000    
   1   536   1     0     9     9  531.       531.       0.5000    
   1   537   1U    0     4     4  531.       531.       0.5000    
   1   537   2     0     1     1  531.       531.       0.1250    
   1   538   1     0     2     2  531.       531.       0.1250    
   1   539   1     0     5     5  531.       531.       0.1875    
   1   540   1     0    13    13  531.       531.       0.1875    
   1   541   1     0     3     3  531.       531.       0.1406    
   1   542   1     0     3     3  532.       532.       0.1406    
   1   543   1     0     2     2  532.       532.       0.2109    
   1   544   1     0     4     4  532.       532.       0.3164    
   1   545   1     0     5     5  533.       533.       0.4746    
   1   546   1U    0     9     9  533.       533.       0.4746    
   1   546   2     0     3     3  533.       533.       0.1187    
   1   547   1     0     1     1  533.       533.       0.1187    
   1   548   1     0     7     7  533.       533.       0.2373    
   1   549   1     0     4     4  533.       533.       0.2373    
   1   550   1     0     3     3  534.       534.       0.2373    
   1   551   1     0     2     2  534.       534.       0.3560    
   1   552   1     0     6     6  534.       534.       0.5339    
   1   553   1U    0     4     4  534.       534.       0.5339    
   1   553   2     0     5     5  535.       535.       0.1335    
   1   554   1U    0     4     4  535.       535.       0.1335    
   1   554   2     0     3     3  535.       535.       0.03337   
   1   555   1     0     4     4  535.       535.       0.03337   
   1   556   1     0     5     5  535.       535.       0.05006   
   1   557   1     0     1     1  535.       535.       0.05006   
   1   558   1     0     1     1  535.       535.       0.05006   
   1   559   1     0     1     1  535.       535.       0.1001    
   1   560   1     0     1     1  535.       535.       0.2002    
   1   561   1     0     1     1  535.       535.       0.4005    
   1   562   1     0     1     1  536.       536.       0.8009    
   1   563   1     0     1     1  537.       537.       1.000     
   1   564   1     0     1     1  538.       538.       1.000     
   1   565   1     0     1     1  539.       539.       1.000     
   1   566   1     0     1     1  540.       540.       1.000     
   1   567   1     0     1     1  541.       541.       1.000     
   1   568   1     0     1     1  542.       542.       1.000     
   1   569   1     0     1     1  543.       543.       1.000     
   1   570   1     0     1     1  544.       544.       1.000     
   1   571   1     0     3     3  545.       545.       1.000     
   1   572   1     0     2     2  546.       546.       1.000     
   1   573   1     0     1     1  547.       547.       1.000     
   1   574   1     0     1     1  548.       548.       1.000     
   1   575   1     0     1     1  549.       549.       1.000     
   1   576   1     0     1     1  550.       550.       1.000     
   1   577   1     0     1     1  551.       551.       1.000     
   1   578   1     0     1     1  552.       552.       1.000     
   1   579   1     0     1     1  553.       553.       1.000     
   1   580   1     0     1     1  554.       554.       1.000     
   1   581   1     0     1     1  555.       555.       1.000     
   1   582   1     0     1     1  556.       556.       1.000     
   1   583   1     0     2     2  557.       557.       1.000     
   1   584   1     0     2     2  558.       558.       1.000     
   1   585   1     0     3     3  559.       559.       1.000     
   1   586   1     0     6     6  560.       560.       1.000     
   1   587   1     0     4     4  561.       561.       1.000     
   1   588   1     0     3     3  562.       562.       1.000     
   1   589   1     0     2     2  563.       563.       1.000     
   1   590   1     0     4     4  564.       564.       1.000     
   1   591   1     0     3     3  565.       565.       1.000     
   1   592   1     0     2     2  566.       566.       1.000     
   1   593   1     0     3     3  567.       567.       1.000     
   1   594   1     0     2     2  568.       568.       1.000     
   1   595   1     0     2     2  569.       569.       1.000     
   1   596   1     0     2     2  570.       570.       1.000     
   1   597   1     0     2     2  571.       571.       1.000     
   1   598   1     0     6     6  572.       572.       1.000     
   1   599   1     0     4     4  573.       573.       1.000     
   1   600   1     0     3     3  574.       574.       1.000     
   1   601   1U    0     2     2  574.       574.       1.000     
   1   601   2     0     2     2  575.       575.       0.2500    
   1   602   1     0     3     3  575.       575.       0.3750    
   1   603   1     0     4     4  575.       575.       0.5625    
   1   604   1     0     3     3  576.       576.       0.8438    
   1   605   1     0     1     1  577.       577.       1.000     
   1   606   1     0     2     2  578.       578.       1.000     
   1   607   1U    0     4     4  578.       578.       1.000     
   1   607   2     0     5     5  579.       579.       0.2500    
   1   608   1     0     5     5  579.       579.       0.2500    
   1   609   1     0     1     1  579.       579.       0.2500    
   1   610   1     0     1     1  579.       579.       0.2500    
   1   611   1     0     1     1  580.       580.       0.5000    
   1   612   1     0     1     1  581.       581.       1.000     
   1   613   1     0     1     1  582.       582.       1.000     
   1   614   1     0     1     1  583.       583.       1.000     
   1   615   1     0     1     1  584.       584.       1.000     
   1   616   1     0     1     1  585.       585.       1.000     
   1   617   1     0     1     1  586.       586.       1.000     
   1   618   1     0     1     1  587.       587.       1.000     
   1   619   1     0     1     1  588.       588.       1.000     
   1   620   1     0     3     3  589.       589.       1.000     
   1   621   1     0     3     3  590.       590.       1.000     
   1   622   1     0     1     1  591.       591.       1.000     
   1   623   1     0     1     1  592.       592.       1.000     
   1   624   1     0     3     3  593.       593.       1.000     
   1   625   1     0     3     3  594.       594.       1.000     
   1   626   1     0     3     3  595.       595.       1.000     
   1   627   1     0     4     4  596.       596.       1.000     
   1   628   1     0     3     3  597.       597.       1.000     
   1   629   1     0     4     4  598.       598.       1.000     
   1   630   1     0     8     8  599.       599.       1.000     
   1   631   1     0     2     2  600.       600.       1.000     
   1   632   1     0     2     2  601.       601.       1.000     
   1   633   1     0     2     2  602.       602.       1.000     
   1   634   1     0     6     6  603.       603.       1.000     
   1   635   1     0     5     5  604.       604.       1.000     
   1   636   1U    0     5     5  604.       604.       1.000     
   1   636   2U    0     5     5  604.       604.       0.2500    
   1   636   3     0     4     4  604.       604.       0.06250   
   1   637   1     0     1     1  604.       604.       0.06250   
   1   638   1     0     1     1  604.       604.       0.1250    
   1   639   1     0     2     2  604.       604.       0.2500    
   1   640   1U    0     5     5  604.       604.       0.3750    
   1   640   2U    0     2     2  604.       604.       0.09375   
   1   640   3     0     2     2  604.       604.       0.02344   
   1   641   1     0     3     3  604.       604.       0.03516   
   1   642   1     0     2     2  604.       604.       0.05273   
   1   643   1     0     1     1  605.       605.       0.07910   
   1   644   1     0     1     1  605.       605.       0.1582    
   1   645   1     0     1     1  605.       605.       0.3164    
   1   646   1     0     1     1  606.       606.       0.6328    
   1   647   1     0     1     1  607.       607.       1.000     
   1   648   1     0     1     1  608.       608.       1.000     
   1   649   1     0     1     1  609.       609.       1.000     
   1   650   1     0     1     1  610.       610.       1.000     
   1   651   1     0     1     1  611.       611.       1.000     
   1   652   1     0     1     1  612.       612.       1.000     
   1   653   1     0     1     1  613.       613.       1.000     
   1   654   1     0     1     1  614.       614.       1.000     
   1   655   1     0     3     3  615.       615.       1.000     
   1   656   1     0     3     3  616.       616.       1.000     
   1   657   1     0     1     1  617.       617.       1.000     
   1   658   1     0     1     1  618.       618.       1.000     
   1   659   1     0     1     1  619.       619.       1.000     
   1   660   1     0     1     1  620.       620.       1.000     
   1   661   1     0     1     1  621.       621.       1.000     
   1   662   1     0     1     1  622.       622.       1.000     
   1   663   1     0     1     1  623.       623.       1.000     
   1   664   1     0     1     1  624.       624.       1.000     
   1   665   1     0     1     1  625.       625.       1.000     
   1   666   1     0     1     1  626.       626.       1.000     
   1   667   1     0     1     1  627.       627.       1.000     
   1   668   1     0     1     1  628.       628.       1.000     
   1   669   1     0     1     1  629.       629.       1.000     
   1   670   1     0     1     1  630.       630.       1.000     
   1   671   1     0     4     4  631.       631.       1.000     
   1   672   1     0     4     4  632.       632.       1.000     
   1   673   1     0     1     1  633.       633.       1.000     
   1   674   1     0     2     2  634.       634.       1.000     
   1   675   1     0     4     4  635.       635.       1.000     
   1   676   1     0    10    10  636.       636.       1.000     
   1   677   1U    0     4     4  636.       636.       1.000     
   1   677   2     0     7     7  636.       636.       0.2500    
   1   678   1     0     1     1  636.       636.       0.2500    
   1   679   1U    0    16    16  636.       636.       0.2500    
   1   679   2     0    13    13  636.       636.       0.06250   
   1   680   1     0    12    12  636.       636.       0.04688   
   1   681   1     0     1     1  636.       636.       0.03516   
   1   682   1     0     6     6  636.       636.       0.03516   
   1   683   1     0     1     1  636.       636.       0.03516   
   1   684   1     0     8     8  636.       636.       0.03516   
   1   685   1     0     1     1  636.       636.       0.03516   
   1   686   1     0     1     1  636.       636.       0.03516   
   1   687   1     0     1     1  637.       637.       0.07031   
   1   688   1     0     1     1  637.       637.       0.1406    
   1   689   1     0     1     1  637.       637.       0.2812    
   1   690   1     0     3     3  638.       638.       0.5625    
   1   691   1     0     3     3  638.       638.       0.8438    
   1   692   1     0     3     3  639.       639.       1.000     
   1   693   1     0     4     4  640.       640.       1.000     
   1   694   1     0     4     4  641.       641.       1.000     
   1   695   1     0     2     2  642.       642.       1.000     
   1   696   1     0     3     3  643.       643.       1.000     
   1   697   1     0     2     2  644.       644.       1.000     
   1   698   1     0     2     2  645.       645.       1.000     
   1   699   1     0     3     3  646.       646.       1.000     
   1   700   1     0     1     1  647.       647.       1.000     
   1   701   1     0     2     2  648.       648.       1.000     
   1   702   1U    0     4     4  648.       648.       1.000     
   1   702   2U    0     3     3  648.       648.       0.2500    
   1   702   3     0     3     3  648.       648.       0.06250   
   1   703   1     0     5     5  649.       649.       0.09375   
   1   704   1     0     2     2  649.       649.       0.09375   
   1   705   1     0     1     1  649.       649.       0.09375   
   1   706   1     0     1     1  649.       649.       0.1875    
   1   707   1     0     1     1  649.       649.       0.3750    
   1   708   1     0     1     1  650.       650.       0.7500    
   1   709   1     0     1     1  651.       651.       1.000     
   1   710   1     0     1     1  652.       652.       1.000     
   1   711   1     0     1     1  653.       653.       1.000     
   1   712   1     0     1     1  654.       654.       1.000     
   1   713   1     0     1     1  655.       655.       1.000     
   1   714   1     0     1     1  656.       656.       1.000     
   1   715   1     0     1     1  657.       657.       1.000     
   1   716   1     0     1     1  658.       658.       1.000     
   1   717   1U    0     4     4  658.       658.       1.000     
   1   717   2     0     1     1  658.       658.       0.2500    
   1   718   1     0     3     3  659.       659.       0.5000    
   1   719   1     0     3     3  660.       660.       0.7500    
   1   720   1     0     1     1  661.       661.       1.000     
   1   721   1     0     2     2  662.       662.       1.000     
   1   722   1     0     2     2  663.       663.       1.000     
   1   723   1     0     4     4  664.       664.       1.000     
   1   724   1     0     4     4  665.       665.       1.000     
   1   725   1     0     3     3  666.       666.       1.000     
   1   726   1     0     2     2  667.       667.       1.000     
   1   727   1     0     2     2  668.       668.       1.000     
   1   728   1     0     2     2  669.       669.       1.000     
   1   729   1     0     2     2  670.       670.       1.000     
   1   730   1     0     4     4  671.       671.       1.000     
   1   731   1     0     3     3  672.       672.       1.000     
   1   732   1     0     4     4  673.       673.       1.000     
   1   733   1     0     3     3  674.       674.       1.000     
   1   734   1     0     3     3  675.       675.       1.000     
   1   735   1U    0     6     6  675.       675.       1.000     
   1   735   2U    0     3     3  675.       675.       0.2500    
   1   735   3     0     3     3  675.       675.       0.06250   
   1   736   1     0     5     5  675.       675.       0.09375   
   1   737   1     0     1     1  675.       675.       0.09375   
   1   738   1     0     1     1  675.       675.       0.09375   
   1   739   1     0     1     1  675.       675.       0.1875    
   1   740   1     0     1     1  675.       675.       0.3750    
   1   741   1     0     1     1  676.       676.       0.7500    
   1   742   1     0     1     1  677.       677.       1.000     
   1   743   1     0     1     1  678.       678.       1.000     
   1   744   1     0     1     1  679.       679.       1.000     
   1   745   1     0     1     1  680.       680.       1.000     
   1   746   1     0     1     1  681.       681.       1.000     
   1   747   1     0     1     1  682.       682.       1.000     
   1   748   1     0     1     1  683.       683.       1.000     
   1   749   1     0     1     1  684.       684.       1.000     
   1   750   1     0     3     3  685.       685.       1.000     
   1   751   1     0     3     3  686.       686.       1.000     
   1   752   1     0     1     1  687.       687.       1.000     
   1   753   1     0     1     1  688.       688.       1.000     
   1   754   1     0     1     1  689.       689.       1.000     
   1   755   1     0     1     1  690.       690.       1.000     
   1   756   1     0     1     1  691.       691.       1.000     
   1   757   1     0     1     1  692.       692.       1.000     
   1   758   1     0     1     1  693.       693.       1.000     
   1   759   1     0     1     1  694.       694.       1.000     
   1   760   1     0     1     1  695.       695.       1.000     
   1   761   1     0     1     1  696.       696.       1.000     
   1   762   1     0     1     1  697.       697.       1.000     
   1   763   1     0     2     2  698.       698.       1.000     
   1   764   1     0     1     1  699.       699.       1.000     
   1   765   1     0     1     1  700.       700.       0.8402    
                          
 THE ANALYSIS HAS COMPLETED SUCCESSFULLY
