*Heading
 Thermal and mechanical analysis
** Job name: ThermalAnalysis Model name: Model-1
** Generated by: Abaqus/CAE Learning Edition 2024
*Preprint, echo=NO, model=NO, history=NO, contact=NO
**
** PARTS
**
*Part, name=Cu
*Node
      1,   12.7279224,           0.,   12.7279224
      2,           0.,           0.,          18.
      3,  -12.7279224,           0.,   12.7279224
      4,         -18.,           0.,           0.
      5,  -12.7279224,           0.,  -12.7279224
      6,           0.,           0.,         -18.
      7,   12.7279224,           0.,  -12.7279224
      8,          18.,           0.,           0.
      9,           0.,           0.,           0.
     10,   10.8416367,   14.2315035,   12.5653057
     11,  -1.60302341,    14.131032,   16.5262413
     12,  -12.4741116,   14.0364809,   10.9693689
     13,  -16.6140938,   13.9987946,           0.
     14,  -12.4741116,   14.0364809,  -10.9693689
     15,  -1.60302341,    14.131032,  -16.5262413
     16,   10.8416367,   14.2315035,  -12.5653057
     17,   16.5926495,   14.2751818,           0.
     18, -0.811664104,   14.1340008,           0.
     19,   9.69283295,    28.563221,   12.4727268
     20,  -2.45951009,   28.4874344,   15.6061897
** ... 52 like lines cut
*Element, type=C3D8T
 1,  6,  9,  8,  7, 15, 18, 17, 16
 2,  2,  9,  4,  3, 11, 18, 13, 12
 3,  2,  1,  8,  9, 11, 10, 17, 18
 4,  6,  5,  4,  9, 15, 14, 13, 18
 5, 15, 18, 17, 16, 24, 27, 26, 25
 6, 11, 18, 13, 12, 20, 27, 22, 21
 7, 11, 10, 17, 18, 20, 19, 26, 27
 8, 15, 14, 13, 18, 24, 23, 22, 27
 9, 24, 27, 26, 25, 33, 36, 35, 34
10, 20, 27, 22, 21, 29, 36, 31, 30
11, 20, 19, 26, 27, 29, 28, 35, 36
12, 24, 23, 22, 27, 33, 32, 31, 36
13, 33, 36, 35, 34, 42, 45, 44, 43
14, 29, 36, 31, 30, 38, 45, 40, 39
15, 29, 28, 35, 36, 38, 37, 44, 45
16, 33, 32, 31, 36, 42, 41, 40, 45
17, 42, 45, 44, 43, 51, 54, 53, 52
18, 38, 45, 40, 39, 47, 54, 49, 48
19, 38, 37, 44, 45, 47, 46, 53, 54
20, 42, 41, 40, 45, 51, 50, 49, 54
** ... 8 like lines cut
*Nset, nset=Cuvolume, generate
  1,  72,   1
*Elset, elset=Cuvolume, generate
  1,  28,   1
*Nset, nset=_G4, internal, generate
  1,  72,   1
*Elset, elset=_G4, internal, generate
  1,  28,   1
*Elset, elset=_ContactSurfCu_S5, internal
  1,  2,  5,  6,  9, 10, 13, 14, 17, 18, 21, 22, 25, 26
*Elset, elset=_ContactSurfCu_S6, internal
  1,  2,  5,  6,  9, 10, 13, 14, 17, 18, 21, 22, 25, 26
*Elset, elset=_ContactSurfCu_S3, internal
  3,  4,  7,  8, 11, 12, 15, 16, 19, 20, 23, 24, 27, 28
*Elset, elset=_ContactSurfCu_S4, internal
  3,  4,  7,  8, 11, 12, 15, 16, 19, 20, 23, 24, 27, 28
*Surface, type=ELEMENT, name=ContactSurfCu
_ContactSurfCu_S5, S5
_ContactSurfCu_S6, S6
_ContactSurfCu_S4, S4
_ContactSurfCu_S3, S3
** Section: Via
*Solid Section, elset=_G4, material=Cu
,
*End Part
**  
*Part, name=Si
*Node
      1,    16.989357,         100.,   12.3434906
      2,   6.48935699,         100.,    19.972187
      3,  -6.48935699,         100.,    19.972187
      4,   -16.989357,         100.,   12.3434906
      5,         -21.,         100.,           0.
      6,   -16.989357,         100.,  -12.3434906
      7,  -6.48935699,         100.,   -19.972187
      8,   6.48935699,         100.,   -19.972187
      9,    16.989357,         100.,  -12.3434906
     10,          21.,         100.,           0.
     11,        -100.,         100.,         100.
     12,         100.,         100.,         100.
     13,         100.,         100.,        -100.
     14,        -100.,         100.,        -100.
     15,         -50.,         100.,         100.
     16,           0.,         100.,         100.
     17,          50.,         100.,         100.
     18,         100.,         100.,         -50.
     19,         100.,         100.,           0.
     20,         100.,         100.,          50.
** ... 348 like lines cut
*Element, type=C3D8T
  1,  31,  36,  35,  28,  77,  82,  81,  74
  2,   5,  45,  27,   6,  51,  91,  73,  52
  3,  42,  25,  24,  38,  88,  71,  70,  84
  4,  41,  39,  22,  23,  87,  85,  68,  69
  5,  37,  44,  29,  43,  83,  90,  75,  89
  6,  30,   4,   3,  28,  76,  50,  49,  74
  7,   3,   2,  31,  28,  49,  48,  77,  74
  8,  37,  20,  12,  17,  83,  66,  58,  63
  9,  41,  23,  13,  18,  87,  69,  59,  64
 10,  10,  29,  44,   1,  56,  75,  90,  47
 11,  38,  24,  14,  21,  84,  70,  60,  67
 12,  34,  32,  38,  39,  80,  78,  84,  85
 13,  34,   8,   7,  32,  80,  54,  53,  78
 14,  40,  36,  16,  15,  86,  82,  62,  61
 15,  40,  15,  11,  26,  86,  61,  57,  72
 16,  33,   9,   8,  34,  79,  55,  54,  80
 17,  33,  29,  10,   9,  79,  75,  56,  55
 18,  32,   7,   6,  27,  78,  53,  52,  73
 19,  31,   2,   1,  44,  77,  48,  47,  90
 20,  45,   5,   4,  30,  91,  51,  50,  76
** ... 211 like lines cut
*Nset, nset=Sivolume, generate
   1,  368,    1
*Elset, elset=Sivolume, generate
   1,  231,    1
*Nset, nset=SiLateralSurf
  11,  12,  13,  14,  15,  16,  17,  18,  19,  20,  21,  22,  23,  24,  25,  26
  57,  58,  59,  60,  61,  62,  63,  64,  65,  66,  67,  68,  69,  70,  71,  72
 103, 104, 105, 106, 107, 108, 109, 110, 111, 112, 113, 114, 115, 116, 117, 118
 149, 150, 151, 152, 153, 154, 155, 156, 157, 158, 159, 160, 161, 162, 163, 164
 195, 196, 197, 198, 199, 200, 201, 202, 203, 204, 205, 206, 207, 208, 209, 210
 241, 242, 243, 244, 245, 246, 247, 248, 249, 250, 251, 252, 253, 254, 255, 256
 287, 288, 289, 290, 291, 292, 293, 294, 295, 296, 297, 298, 299, 300, 301, 302
 333, 334, 335, 336, 337, 338, 339, 340, 341, 342, 343, 344, 345, 346, 347, 348
*Elset, elset=SiLateralSurf
   3,   4,   8,   9,  11,  14,  15,  23,  24,  25,  27,  32,  36,  37,  41,  42
  44,  47,  48,  56,  57,  58,  60,  65,  69,  70,  74,  75,  77,  80,  81,  89
  90,  91,  93,  98, 102, 103, 107, 108, 110, 113, 114, 122, 123, 124, 126, 131
 135, 136, 140, 141, 143, 146, 147, 155, 156, 157, 159, 164, 168, 169, 173, 174
 176, 179, 180, 188, 189, 190, 192, 197, 201, 202, 206, 207, 209, 212, 213, 221
 222, 223, 225, 230
*Nset, nset=_G5, internal, generate
   1,  368,    1
*Elset, elset=_G5, internal, generate
   1,  231,    1
*Elset, elset=_ContactSurfSi_S6, internal
   2,  10,  35,  43,  68,  76, 101, 109, 134, 142, 167, 175, 200, 208
*Elset, elset=_ContactSurfSi_S4, internal
   6,  13,  16,  18,  19,  20,  39,  46,  49,  51,  52,  53,  72,  79,  82,  84
  85,  86, 105, 112, 115, 117, 118, 119, 138, 145, 148, 150, 151, 152, 171, 178
 181, 183, 184, 185, 204, 211, 214, 216, 217, 218
*Elset, elset=_ContactSurfSi_S3, internal, generate
   7,  205,   33
*Elset, elset=_ContactSurfSi_S5, internal, generate
  17,  215,   33
*Surface, type=ELEMENT, name=ContactSurfSi
_ContactSurfSi_S6, S6
_ContactSurfSi_S4, S4
_ContactSurfSi_S3, S3
_ContactSurfSi_S5, S5
** Section: wafer
*Solid Section, elset=_G5, material=Si
,
*End Part
**  
**
** ASSEMBLY
**
*Assembly, name=Assembly
**  
*Instance, name=Cu, part=Cu
*End Instance
**  
*Instance, name=Si, part=Si
*End Instance
**  
** Constraint: CuSiTie
*Tie, name=CuSiTie, adjust=yes
Si.ContactSurfSi, Cu.ContactSurfCu
*End Assembly
*Amplitude, name=ThermalCycle, time=TOTAL TIME
             0.,             25.,           1.833,            300.,           2.833,            300.,           4.433,            -65.
          5.433,            -65.,              7.,             25.,           8.833,            300.,           9.833,            300.
         11.433,            -65.,          12.433,            -65.,             14.,             25.,          15.833,            300.
         16.833,            300.,          18.433,            -65.,          19.433,            -65.,             21.,             25.
         22.833,            300.,          23.833,            300.,          25.433,            -65.,          26.433,            -65.
            28.,             25.,          29.833,            300.,          30.833,            300.,          32.433,            -65.
         33.433,            -65.,             35.,             25.,          36.833,            300.,          37.833,            300.
         39.433,            -65.,          40.433,            -65.,             42.,             25.,          43.833,            300.
         44.833,            300.,          46.433,            -65.,          47.433,            -65.,             49.,             25.
         50.833,            300.,          51.833,            300.,          53.433,            -65.,          54.433,            -65.
            56.,             25.,          57.833,            300.,          58.833,            300.,          60.433,            -65.
         61.433,            -65.,             63.,             25.,          64.833,            300.,          65.833,            300.
         67.433,            -65.,          68.433,            -65.,             70.,             25.,          71.833,            300.
         72.833,            300.,          74.433,            -65.,          75.433,            -65.,             77.,             25.
         78.833,            300.,          79.833,            300.,          81.433,            -65.,          82.433,            -65.
            84.,             25.,          85.833,            300.,          86.833,            300.,          88.433,            -65.
         89.433,            -65.,             91.,             25.,          92.833,            300.,          93.833,            300.
         95.433,            -65.,          96.433,            -65.,             98.,             25.,          99.833,            300.
        100.833,            300.,         102.433,            -65.,         103.433,            -65.,            105.,             25.
        106.833,            300.,         107.833,            300.,         109.433,            -65.,         110.433,            -65.
** ... 12 like lines cut
** 
** MATERIALS
** 
*Material, name=Cu
*Conductivity
 0.401,
*Damage Initiation, criterion=DUCTILE
 0.15, 0.1,  0.
*Damage Evolution, type=DISPLACEMENT
 0.1,
*Density
 8.96e-12,
*Elastic
120000., 0.34
*Expansion
 1.7e-05,
*Plastic
    140.,         0.
 149.666, 0.00100503
 151.785, 0.00201005
 153.234, 0.00301508
 154.369,  0.0040201
 155.316, 0.00502513
 156.136, 0.00603015
 156.863, 0.00703518
 157.519,  0.0080402
 158.119, 0.00904523
 158.674,  0.0100503
  159.19,  0.0110553
 159.673,  0.0120603
 160.129,  0.0130653
  160.56,  0.0140704
  160.97,  0.0150754
  161.36,  0.0160804
 161.734,  0.0170854
 162.092,  0.0180905
 162.437,  0.0190955
** ... 180 like lines cut
*Specific Heat
 0.00039,
*Material, name=Si
*Conductivity
 0.149,
*Density
 2.33e-12,
*Elastic
130000., 0.28
*Expansion
 2.8e-06,
*Specific Heat
 0.0007,
** 
** BOUNDARY CONDITIONS
** 
** Name: FixedSiLateral Type: Displacement/Rotation
*Boundary, fixed
Si.SiLateralSurf, 1, 1
Si.SiLateralSurf, 2, 2
Si.SiLateralSurf, 3, 3
** ----------------------------------------------------------------
** 
** STEP: TCTCondition
** 
*Step, name=TCTCondition, nlgeom=NO, inc=100000
*Coupled Temperature-displacement, creep=none, deltmx=1.
0.1, 175., 1e-05, 1.
** 
** BOUNDARY CONDITIONS
** 
** Name: CuTempBC Type: Temperature
*Boundary, amplitude=ThermalCycle
Cu.Cuvolume, 11, 11, 1.
** Name: SiTempBC Type: Temperature
*Boundary, amplitude=ThermalCycle
Si.Sivolume, 11, 11, 1.
** 
** OUTPUT REQUESTS
** 
*Restart, write, frequency=0
** 
** FIELD OUTPUT: F-Output-1
** 
*Output, field, variable=PRESELECT
** 
** HISTORY OUTPUT: H-Output-1
** 
*Output, history, variable=PRESELECT
*End Step
