*Heading
 Thermal and mechanical analysis
** Job name: ThermalAnalysis Model name: Model-1
** Generated by: Abaqus/CAE Learning Edition 2024
*Preprint, echo=NO, model=NO, history=NO, contact=NO
**
** PARTS
**
*Part, name=Cu
*Node
      1,           5.,           0.,   8.66025448
      2,          -5.,           0.,   8.66025448
      3,         -10.,           0.,           0.
      4,          -5.,           0.,  -8.66025448
      5,           5.,           0.,  -8.66025448
      6,          10.,           0.,           0.
      7,           0.,           0.,           0.
      8,   5.85287189,    10.008914,   8.59706116
      9,  -4.45354986,   9.98330975,   9.39763165
     10,   -10.399085,   9.96953201,           0.
     11,  -4.45354986,   9.98330975,  -9.39763165
     12,   5.85287189,    10.008914,  -8.59706116
     13,   10.4006262,   10.0208998,           0.
     14,  0.466628611,   9.99581337,           0.
     15,   6.46244621,   20.0411835,    8.4027071
     16,  -3.81383586,   20.0263023,   9.89041042
     17,  -10.6001768,   20.0177307,           0.
     18,  -3.81383586,   20.0263023,  -9.89041042
     19,   6.46244621,   20.0411835,   -8.4027071
     20,   10.6004763,   20.0478115,           0.
** ... 57 like lines cut
*Element, type=C3D8T
 1,  4,  7,  6,  5, 11, 14, 13, 12
 2,  1,  6,  7,  2,  8, 13, 14,  9
 3,  7,  4,  3,  2, 14, 11, 10,  9
 4, 11, 14, 13, 12, 18, 21, 20, 19
 5,  8, 13, 14,  9, 15, 20, 21, 16
 6, 14, 11, 10,  9, 21, 18, 17, 16
 7, 18, 21, 20, 19, 25, 28, 27, 26
 8, 15, 20, 21, 16, 22, 27, 28, 23
 9, 21, 18, 17, 16, 28, 25, 24, 23
10, 25, 28, 27, 26, 32, 35, 34, 33
11, 22, 27, 28, 23, 29, 34, 35, 30
12, 28, 25, 24, 23, 35, 32, 31, 30
13, 32, 35, 34, 33, 39, 42, 41, 40
14, 29, 34, 35, 30, 36, 41, 42, 37
15, 35, 32, 31, 30, 42, 39, 38, 37
16, 39, 42, 41, 40, 46, 49, 48, 47
17, 36, 41, 42, 37, 43, 48, 49, 44
18, 42, 39, 38, 37, 49, 46, 45, 44
19, 46, 49, 48, 47, 53, 56, 55, 54
20, 43, 48, 49, 44, 50, 55, 56, 51
** ... 10 like lines cut
*Nset, nset=Cuvolume, generate
  1,  77,   1
*Elset, elset=Cuvolume, generate
  1,  30,   1
*Nset, nset=_G4, internal, generate
  1,  77,   1
*Elset, elset=_G4, internal, generate
  1,  30,   1
*Elset, elset=_ContactSurfCu_S5, internal
  1,  3,  4,  6,  7,  9, 10, 12, 13, 15, 16, 18, 19, 21, 22, 24
 25, 27, 28, 30
*Elset, elset=_ContactSurfCu_S6, internal
  1,  2,  4,  5,  7,  8, 10, 11, 13, 14, 16, 17, 19, 20, 22, 23
 25, 26, 28, 29
*Elset, elset=_ContactSurfCu_S3, internal, generate
  2,  29,   3
*Elset, elset=_ContactSurfCu_S4, internal, generate
  3,  30,   3
*Surface, type=ELEMENT, name=ContactSurfCu
_ContactSurfCu_S5, S5
_ContactSurfCu_S6, S6
_ContactSurfCu_S4, S4
_ContactSurfCu_S3, S3
** Section: Via
*Solid Section, elset=_G4, material=Cu
,
*End Part
**  
*Part, name=Si
*Node
      1,           0.,         100.,           5.
      2,          -5.,         100.,           0.
      3,           0.,         100.,          -5.
      4,           5.,         100.,           0.
      5,        -100.,         100.,         100.
      6,         100.,         100.,         100.
      7,         100.,         100.,        -100.
      8,        -100.,         100.,        -100.
      9,         -50.,         100.,         100.
     10,           0.,         100.,         100.
     11,          50.,         100.,         100.
     12,         100.,         100.,         -50.
     13,         100.,         100.,           0.
     14,         100.,         100.,          50.
     15,         -50.,         100.,        -100.
     16,           0.,         100.,        -100.
     17,          50.,         100.,        -100.
     18,        -100.,         100.,         -50.
     19,        -100.,         100.,           0.
     20,        -100.,         100.,          50.
** ... 574 like lines cut
*Element, type=C3D8T
  1,  38,  33,  50,  35,  92,  87, 104,  89
  2,  51,   1,  23,  32, 105,  55,  77,  86
  3,   1,  51,  21,   2,  55, 105,  75,  56
  4,  54,  48,  25,  34, 108, 102,  79,  88
  5,   2,  48,  22,   3,  56, 102,  76,  57
  6,  22,  30,  29,  26,  76,  84,  83,  80
  7,  43,  31,  46,  27,  97,  85, 100,  81
  8,  46,   4,  24,  27, 100,  58,  78,  81
  9,  47,  26,  29,  28, 101,  80,  83,  82
 10,  50,  33,  32,  23, 104,  87,  86,  77
 11,  11,  45,  14,   6,  65,  99,  68,  60
 12,  12,  40,  17,   7,  66,  94,  71,  61
 13,  46,  23,   1,   4, 100,  77,  55,  58
 14,   8,  15,  42,  18,  62,  69,  96,  72
 15,   3,  47,  24,   4,  57, 101,  78,  58
 16,   5,  20,  41,   9,  59,  74,  95,  63
 17,  21,  25,  48,   2,  75,  79, 102,  56
 18,  31,  44,  35,  50,  85,  98,  89, 104
 19,  25,  21,  51,  37,  79,  75, 105,  91
 20,  39,  29,  30,  36,  93,  83,  84,  90
** ... 420 like lines cut
*Nset, nset=Sivolume, generate
   1,  594,    1
*Elset, elset=Sivolume, generate
   1,  440,    1
*Nset, nset=SiLateralSurf
   5,   6,   7,   8,   9,  10,  11,  12,  13,  14,  15,  16,  17,  18,  19,  20
  59,  60,  61,  62,  63,  64,  65,  66,  67,  68,  69,  70,  71,  72,  73,  74
 113, 114, 115, 116, 117, 118, 119, 120, 121, 122, 123, 124, 125, 126, 127, 128
 167, 168, 169, 170, 171, 172, 173, 174, 175, 176, 177, 178, 179, 180, 181, 182
 221, 222, 223, 224, 225, 226, 227, 228, 229, 230, 231, 232, 233, 234, 235, 236
 275, 276, 277, 278, 279, 280, 281, 282, 283, 284, 285, 286, 287, 288, 289, 290
 329, 330, 331, 332, 333, 334, 335, 336, 337, 338, 339, 340, 341, 342, 343, 344
 383, 384, 385, 386, 387, 388, 389, 390, 391, 392, 393, 394, 395, 396, 397, 398
 437, 438, 439, 440, 441, 442, 443, 444, 445, 446, 447, 448, 449, 450, 451, 452
 491, 492, 493, 494, 495, 496, 497, 498, 499, 500, 501, 502, 503, 504, 505, 506
 545, 546, 547, 548, 549, 550, 551, 552, 553, 554, 555, 556, 557, 558, 559, 560
*Elset, elset=SiLateralSurf
  11,  12,  14,  16,  26,  30,  31,  33,  34,  37,  39,  42,  55,  56,  58,  60
  70,  74,  75,  77,  78,  81,  83,  86,  99, 100, 102, 104, 114, 118, 119, 121
 122, 125, 127, 130, 143, 144, 146, 148, 158, 162, 163, 165, 166, 169, 171, 174
 187, 188, 190, 192, 202, 206, 207, 209, 210, 213, 215, 218, 231, 232, 234, 236
 246, 250, 251, 253, 254, 257, 259, 262, 275, 276, 278, 280, 290, 294, 295, 297
 298, 301, 303, 306, 319, 320, 322, 324, 334, 338, 339, 341, 342, 345, 347, 350
 363, 364, 366, 368, 378, 382, 383, 385, 386, 389, 391, 394, 407, 408, 410, 412
 422, 426, 427, 429, 430, 433, 435, 438
*Nset, nset=_G5, internal, generate
   1,  594,    1
*Elset, elset=_G5, internal, generate
   1,  440,    1
*Elset, elset=_ContactSurfSi_S6, internal
   3,   5,  15,  47,  49,  59,  91,  93, 103, 135, 137, 147, 179, 181, 191, 223
 225, 235, 267, 269, 279, 311, 313, 323, 355, 357, 367, 399, 401, 411
*Elset, elset=_ContactSurfSi_S5, internal, generate
  13,  409,   44
*Surface, type=ELEMENT, name=ContactSurfSi
_ContactSurfSi_S6, S6
_ContactSurfSi_S5, S5
** Section: wafer
*Solid Section, elset=_G5, material=Si
,
*End Part
**  
**
** ASSEMBLY
**
*Assembly, name=Assembly
**  
*Instance, name=Cu, part=Cu
*End Instance
**  
*Instance, name=Si, part=Si
*End Instance
**  
** Constraint: CuSiTie
*Tie, name=CuSiTie, adjust=yes
Si.ContactSurfSi, Cu.ContactSurfCu
*End Assembly
*Amplitude, name=ThermalCycle, time=TOTAL TIME
             0.,             25.,           1.833,            300.,           2.833,            300.,           4.433,            -65.
          5.433,            -65.,              7.,             25.,           8.833,            300.,           9.833,            300.
         11.433,            -65.,          12.433,            -65.,             14.,             25.,          15.833,            300.
         16.833,            300.,          18.433,            -65.,          19.433,            -65.,             21.,             25.
         22.833,            300.,          23.833,            300.,          25.433,            -65.,          26.433,            -65.
            28.,             25.,          29.833,            300.,          30.833,            300.,          32.433,            -65.
         33.433,            -65.,             35.,             25.,          36.833,            300.,          37.833,            300.
         39.433,            -65.,          40.433,            -65.,             42.,             25.,          43.833,            300.
         44.833,            300.,          46.433,            -65.,          47.433,            -65.,             49.,             25.
         50.833,            300.,          51.833,            300.,          53.433,            -65.,          54.433,            -65.
            56.,             25.,          57.833,            300.,          58.833,            300.,          60.433,            -65.
         61.433,            -65.,             63.,             25.,          64.833,            300.,          65.833,            300.
         67.433,            -65.,          68.433,            -65.,             70.,             25.
** 
** MATERIALS
** 
*Material, name=Cu
*Conductivity
 0.401,
*Damage Initiation, criterion=DUCTILE
 0.15, 0.1,  0.
*Damage Evolution, type=DISPLACEMENT
 0.1,
*Density
 8.96e-12,
*Elastic
120000., 0.34
*Expansion
 1.7e-05,
*Plastic
    140.,         0.
 149.666, 0.00100503
 151.785, 0.00201005
 153.234, 0.00301508
 154.369,  0.0040201
 155.316, 0.00502513
 156.136, 0.00603015
 156.863, 0.00703518
 157.519,  0.0080402
 158.119, 0.00904523
 158.674,  0.0100503
  159.19,  0.0110553
 159.673,  0.0120603
 160.129,  0.0130653
  160.56,  0.0140704
  160.97,  0.0150754
  161.36,  0.0160804
 161.734,  0.0170854
 162.092,  0.0180905
 162.437,  0.0190955
** ... 180 like lines cut
*Specific Heat
 0.00039,
*Material, name=Si
*Conductivity
 0.149,
*Density
 2.33e-12,
*Elastic
130000., 0.28
*Expansion
 2.8e-06,
*Specific Heat
 0.0007,
** 
** BOUNDARY CONDITIONS
** 
** Name: FixedSiLateral Type: Displacement/Rotation
*Boundary, fixed
Si.SiLateralSurf, 1, 1
Si.SiLateralSurf, 2, 2
Si.SiLateralSurf, 3, 3
** ----------------------------------------------------------------
** 
** STEP: TCTCondition
** 
*Step, name=TCTCondition, nlgeom=NO, inc=100000
*Coupled Temperature-displacement, creep=none, deltmx=1.
0.1, 70., 1e-05, 1.
** 
** BOUNDARY CONDITIONS
** 
** Name: CuTempBC Type: Temperature
*Boundary, amplitude=ThermalCycle
Cu.Cuvolume, 11, 11, 1.
** Name: SiTempBC Type: Temperature
*Boundary, amplitude=ThermalCycle
Si.Sivolume, 11, 11, 1.
** 
** OUTPUT REQUESTS
** 
*Restart, write, frequency=0
** 
** FIELD OUTPUT: F-Output-1
** 
*Output, field, variable=PRESELECT
** 
** HISTORY OUTPUT: H-Output-1
** 
*Output, history, variable=PRESELECT
*End Step
