 Abaqus/Standard Learning Edition 2024                  DATE 13-May-2025 TIME 20:59:56
 SUMMARY OF JOB INFORMATION:
 STEP  INC ATT SEVERE EQUIL TOTAL  TOTAL      STEP       INC OF       DOF    IF
               DISCON ITERS ITERS  TIME/    TIME/LPF    TIME/LPF    MONITOR RIKS
               ITERS               FREQ
   1     1   1     0     1     1  0.100      0.100      0.1000    
   1     2   1     0     4     4  0.200      0.200      0.1000    
   1     3   1     0     2     2  0.300      0.300      0.1000    
   1     4   1     0     2     2  0.450      0.450      0.1500    
   1     5   1     0     2     2  0.675      0.675      0.2250    
   1     6   1     0     2     2  1.01       1.01       0.3375    
   1     7   1     0     1     1  1.52       1.52       0.5063    
   1     8   1     0     2     2  2.52       2.52       1.000     
   1     9   1     0     6     6  3.52       3.52       1.000     
   1    10   1     0     3     3  4.52       4.52       1.000     
                          
 THE ANALYSIS HAS NOT BEEN COMPLETED
