*Heading
 Thermal and mechanical analysis
** Job name: ThermalAnalysis Model name: Model-1
** Generated by: Abaqus/CAE Learning Edition 2024
*Preprint, echo=NO, model=NO, history=NO, contact=NO
**
** PARTS
**
*Part, name=Cu
*Node
      1,   12.1352549,           0.,   8.81677914
      2,   4.63525486,           0.,   14.2658482
      3,  -4.63525486,           0.,   14.2658482
      4,  -12.1352549,           0.,   8.81677914
      5,         -15.,           0.,           0.
      6,  -12.1352549,           0.,  -8.81677914
      7,  -4.63525486,           0.,  -14.2658482
      8,   4.63525486,           0.,  -14.2658482
      9,   12.1352549,           0.,  -8.81677914
     10,          15.,           0.,           0.
     11,   4.78923702,           0.,   5.17442846
     12,  -2.91142392,           0.,   8.51039982
     13,  -7.23938751,           0.,   1.29960251
     14,   5.39378405,           0., -0.577908218
     15,   2.37644529,           0.,   9.34844971
     16,  -7.63366365,           0.,    6.1760602
     17,  -4.23865318,           0.,  -3.73440266
     18,   2.12313795,           0.,  -6.68259144
     19,  -1.42066956,           0.,   3.64904666
     20, -0.184053496,           0., -0.00841831509
** ... 200 like lines cut
*Element, type=C3D8T
  1,   2,   1,  11,  15,  22,  21,  31,  35
  2,   2,  15,  12,   3,  22,  35,  32,  23
  3,  11,  19,  12,  15,  31,  39,  32,  35
  4,  16,  12,  19,  13,  36,  32,  39,  33
  5,  19,  20,  17,  13,  39,  40,  37,  33
  6,  14,  18,  17,  20,  34,  38,  37,  40
  7,  14,  11,   1,  10,  34,  31,  21,  30
  8,  16,   4,   3,  12,  36,  24,  23,  32
  9,   5,  13,  17,   6,  25,  33,  37,  26
 10,  10,   9,  18,  14,  30,  29,  38,  34
 11,  13,   5,   4,  16,  33,  25,  24,  36
 12,  18,   7,   6,  17,  38,  27,  26,  37
 13,   9,   8,   7,  18,  29,  28,  27,  38
 14,  11,  14,  20,  19,  31,  34,  40,  39
 15,  22,  21,  31,  35,  42,  41,  51,  55
 16,  22,  35,  32,  23,  42,  55,  52,  43
 17,  31,  39,  32,  35,  51,  59,  52,  55
 18,  36,  32,  39,  33,  56,  52,  59,  53
 19,  39,  40,  37,  33,  59,  60,  57,  53
 20,  34,  38,  37,  40,  54,  58,  57,  60
** ... 120 like lines cut
*Nset, nset=Cuvolume, generate
   1,  220,    1
*Elset, elset=Cuvolume, generate
   1,  140,    1
*Nset, nset=_G4, internal, generate
   1,  220,    1
*Elset, elset=_G4, internal, generate
   1,  140,    1
*Elset, elset=_ContactSurfCu_S3, internal
   1,  10,  13,  15,  24,  27,  29,  38,  41,  43,  52,  55,  57,  66,  69,  71
  80,  83,  85,  94,  97,  99, 108, 111, 113, 122, 125, 127, 136, 139
*Elset, elset=_ContactSurfCu_S6, internal, generate
   2,  135,    7
*Elset, elset=_ContactSurfCu_S5, internal, generate
   7,  133,   14
*Elset, elset=_ContactSurfCu_S4, internal
   8,  11,  12,  13,  22,  25,  26,  27,  36,  39,  40,  41,  50,  53,  54,  55
  64,  67,  68,  69,  78,  81,  82,  83,  92,  95,  96,  97, 106, 109, 110, 111
 120, 123, 124, 125, 134, 137, 138, 139
*Surface, type=ELEMENT, name=ContactSurfCu
_ContactSurfCu_S3, S3
_ContactSurfCu_S6, S6
_ContactSurfCu_S4, S4
_ContactSurfCu_S5, S5
** Section: Via
*Solid Section, elset=_G4, material=Cu
,
*End Part
**  
*Part, name=Si
*Node
      1,           5.,         100.,   8.66025448
      2,          -5.,         100.,   8.66025448
      3,         -10.,         100.,           0.
      4,          -5.,         100.,  -8.66025448
      5,           5.,         100.,  -8.66025448
      6,          10.,         100.,           0.
      7,        -100.,         100.,         100.
      8,         100.,         100.,         100.
      9,         100.,         100.,        -100.
     10,        -100.,         100.,        -100.
     11,         -50.,         100.,         100.
     12,           0.,         100.,         100.
     13,          50.,         100.,         100.
     14,         100.,         100.,         -50.
     15,         100.,         100.,           0.
     16,         100.,         100.,          50.
     17,         -50.,         100.,        -100.
     18,           0.,         100.,        -100.
     19,          50.,         100.,        -100.
     20,        -100.,         100.,         -50.
** ... 585 like lines cut
*Element, type=C3D8T
  1,  24,   2,  32,  36,  79,  57,  87,  91
  2,  49,  34,  51,  54, 104,  89, 106, 109
  3,   4,  25,  34,  30,  59,  80,  89,  85
  4,  29,  25,   4,   3,  84,  80,  59,  58
  5,  26,  30,  41,  50,  81,  85,  96, 105
  6,  27,  31,  48,  38,  82,  86, 103,  93
  7,  45,  47,  28,  35, 100, 102,  83,  90
  8,  35,  28,  27,  38,  90,  83,  82,  93
  9,   5,  27,  28,   6,  60,  82,  83,  61
 10,  13,  44,  16,   8,  68,  99,  71,  63
 11,   9,  14,  45,  19,  64,  69, 100,  74
 12,   2,   1,  23,  32,  57,  56,  78,  87
 13,  10,  17,  46,  20,  65,  72, 101,  75
 14,  26,  50,  48,  31,  81, 105, 103,  86
 15,  33,  24,  36,  37,  88,  79,  91,  92
 16,   7,  22,  43,  11,  62,  77,  98,  66
 17,  23,  28,  47,  32,  78,  83, 102,  87
 18,  29,   3,   2,  24,  84,  58,  57,  79
 19,  36,  32,  39,  37,  91,  87,  94,  92
 20,   5,   4,  30,  26,  60,  59,  85,  81
** ... 420 like lines cut
*Nset, nset=Sivolume, generate
   1,  605,    1
*Elset, elset=Sivolume, generate
   1,  440,    1
*Nset, nset=SiLateralSurf
   7,   8,   9,  10,  11,  12,  13,  14,  15,  16,  17,  18,  19,  20,  21,  22
  62,  63,  64,  65,  66,  67,  68,  69,  70,  71,  72,  73,  74,  75,  76,  77
 117, 118, 119, 120, 121, 122, 123, 124, 125, 126, 127, 128, 129, 130, 131, 132
 172, 173, 174, 175, 176, 177, 178, 179, 180, 181, 182, 183, 184, 185, 186, 187
 227, 228, 229, 230, 231, 232, 233, 234, 235, 236, 237, 238, 239, 240, 241, 242
 282, 283, 284, 285, 286, 287, 288, 289, 290, 291, 292, 293, 294, 295, 296, 297
 337, 338, 339, 340, 341, 342, 343, 344, 345, 346, 347, 348, 349, 350, 351, 352
 392, 393, 394, 395, 396, 397, 398, 399, 400, 401, 402, 403, 404, 405, 406, 407
 447, 448, 449, 450, 451, 452, 453, 454, 455, 456, 457, 458, 459, 460, 461, 462
 502, 503, 504, 505, 506, 507, 508, 509, 510, 511, 512, 513, 514, 515, 516, 517
 557, 558, 559, 560, 561, 562, 563, 564, 565, 566, 567, 568, 569, 570, 571, 572
*Elset, elset=SiLateralSurf
  10,  11,  13,  16,  24,  26,  28,  29,  31,  33,  34,  36,  54,  55,  57,  60
  68,  70,  72,  73,  75,  77,  78,  80,  98,  99, 101, 104, 112, 114, 116, 117
 119, 121, 122, 124, 142, 143, 145, 148, 156, 158, 160, 161, 163, 165, 166, 168
 186, 187, 189, 192, 200, 202, 204, 205, 207, 209, 210, 212, 230, 231, 233, 236
 244, 246, 248, 249, 251, 253, 254, 256, 274, 275, 277, 280, 288, 290, 292, 293
 295, 297, 298, 300, 318, 319, 321, 324, 332, 334, 336, 337, 339, 341, 342, 344
 362, 363, 365, 368, 376, 378, 380, 381, 383, 385, 386, 388, 406, 407, 409, 412
 420, 422, 424, 425, 427, 429, 430, 432
*Nset, nset=_G5, internal, generate
   1,  605,    1
*Elset, elset=_G5, internal, generate
   1,  440,    1
*Elset, elset=_ContactSurfSi_S5, internal, generate
   4,  400,   44
*Elset, elset=_ContactSurfSi_S6, internal, generate
   9,  405,   44
*Elset, elset=_ContactSurfSi_S3, internal
  12,  20,  23,  56,  64,  67, 100, 108, 111, 144, 152, 155, 188, 196, 199, 232
 240, 243, 276, 284, 287, 320, 328, 331, 364, 372, 375, 408, 416, 419
*Elset, elset=_ContactSurfSi_S4, internal, generate
  18,  414,   44
*Surface, type=ELEMENT, name=ContactSurfSi
_ContactSurfSi_S5, S5
_ContactSurfSi_S6, S6
_ContactSurfSi_S4, S4
_ContactSurfSi_S3, S3
** Section: wafer
*Solid Section, elset=_G5, material=Si
,
*End Part
**  
**
** ASSEMBLY
**
*Assembly, name=Assembly
**  
*Instance, name=Cu, part=Cu
*End Instance
**  
*Instance, name=Si, part=Si
*End Instance
**  
** Constraint: CuSiTie
*Tie, name=CuSiTie, adjust=yes
Si.ContactSurfSi, Cu.ContactSurfCu
*End Assembly
*Amplitude, name=ThermalCycle, time=TOTAL TIME
             0.,             25.,           18.33,            300.,           28.33,            300.,           44.33,            -65.
          54.33,            -65.,             70.,             25.,           88.33,            300.,           98.33,            300.
         114.33,            -65.,          124.33,            -65.,            140.,             25.,          158.33,            300.
         168.33,            300.,          184.33,            -65.,          194.33,            -65.,            210.,             25.
         228.33,            300.,          238.33,            300.,          254.33,            -65.,          264.33,            -65.
           280.,             25.,          298.33,            300.,          308.33,            300.,          324.33,            -65.
         334.33,            -65.,            350.,             25.,          368.33,            300.,          378.33,            300.
         394.33,            -65.,          404.33,            -65.,            420.,             25.,          438.33,            300.
         448.33,            300.,          464.33,            -65.,          474.33,            -65.,            490.,             25.
         508.33,            300.,          518.33,            300.,          534.33,            -65.,          544.33,            -65.
           560.,             25.,          578.33,            300.,          588.33,            300.,          604.33,            -65.
         614.33,            -65.,            630.,             25.,          648.33,            300.,          658.33,            300.
         674.33,            -65.,          684.33,            -65.,            700.,             25.
** 
** MATERIALS
** 
*Material, name=Cu
*Conductivity
 0.401,
*Damage Initiation, criterion=DUCTILE
 0.15, 0.1,  0.
*Damage Evolution, type=DISPLACEMENT
 0.1,
*Density
 8.96e-12,
*Elastic
120000., 0.34
*Expansion
 1.7e-05,
*Plastic
    140.,         0.
 149.666, 0.00100503
 151.785, 0.00201005
 153.234, 0.00301508
 154.369,  0.0040201
 155.316, 0.00502513
 156.136, 0.00603015
 156.863, 0.00703518
 157.519,  0.0080402
 158.119, 0.00904523
 158.674,  0.0100503
  159.19,  0.0110553
 159.673,  0.0120603
 160.129,  0.0130653
  160.56,  0.0140704
  160.97,  0.0150754
  161.36,  0.0160804
 161.734,  0.0170854
 162.092,  0.0180905
 162.437,  0.0190955
** ... 180 like lines cut
*Specific Heat
 0.00039,
*Material, name=Si
*Conductivity
 0.149,
*Density
 2.33e-12,
*Elastic
130000., 0.28
*Expansion
 2.8e-06,
*Specific Heat
 0.0007,
** 
** BOUNDARY CONDITIONS
** 
** Name: FixedSiLateral Type: Displacement/Rotation
*Boundary, fixed
Si.SiLateralSurf, 1, 1
Si.SiLateralSurf, 2, 2
Si.SiLateralSurf, 3, 3
** ----------------------------------------------------------------
** 
** STEP: TCTCondition
** 
*Step, name=TCTCondition, nlgeom=NO, inc=100000
*Coupled Temperature-displacement, creep=none, deltmx=1.
0.1, 700., 1e-05, 1.
** 
** BOUNDARY CONDITIONS
** 
** Name: CuTempBC Type: Temperature
*Boundary, amplitude=ThermalCycle
Cu.Cuvolume, 11, 11, 1.
** Name: SiTempBC Type: Temperature
*Boundary, amplitude=ThermalCycle
Si.Sivolume, 11, 11, 1.
** 
** OUTPUT REQUESTS
** 
*Restart, write, frequency=0
** 
** FIELD OUTPUT: F-Output-1
** 
*Output, field, variable=PRESELECT
** 
** HISTORY OUTPUT: H-Output-1
** 
*Output, history, variable=PRESELECT
*End Step
